<?xml version="1.0" encoding="UTF-8"?>

<!-- generated on 2025-08-24 08:42:20.538155 by osmWebWizard.py v1_24_0+0000-b72eb3fabc8
<configuration>
    <net-file value="C:\Users\marce\Sumo\2025-08-24-08-41-09\osm.net.xml.gz"/>
    <output-trip-file value="C:\Users\marce\Sumo\2025-08-24-08-41-09\osm.passenger.trips.xml"/>
    <route-file value="C:\Users\marce\Sumo\2025-08-24-08-41-09\osm.passenger.rou.xml"/>
    <prefix value="veh"/>
    <trip-attributes value="departLane=&quot;best&quot;"/>
    <fringe-start-attributes value="departSpeed=&quot;max&quot;"/>
    <vehicle-class value="passenger"/>
    <lanes value="True"/>
    <fringe-factor value="5"/>
    <allow-fringe.min-length value="1000.0"/>
    <edge-permission value="passenger"/>
    <via-edge-types value="highway.motorway,highway.motorway_link,highway.trunk_link,highway.primary_link,highway.secondary_link,highway.tertiary_link"/>
    <min-distance value="300.0"/>
    <min-distance.fringe value="10.0"/>
    <remove-loops value="True"/>
    <insertion-density value="12.0"/>
</configuration>
-->

<routes xmlns:xsi="http://www.w3.org/2001/XMLSchema-instance" xsi:noNamespaceSchemaLocation="http://sumo.dlr.de/xsd/routes_file.xsd">
    <vType id="veh_passenger" vClass="passenger"/>
    <trip id="veh0" depart="0.00" from="1391901662#0" to="1264827294" departLane="best" type="veh_passenger"/>
    <trip id="veh1" depart="0.68" from="668480292#2" to="-665364959" departLane="best" type="veh_passenger"/>
    <trip id="veh2" depart="1.35" from="237521116#2" to="-232960694" departLane="best" type="veh_passenger"/>
    <trip id="veh3" depart="2.03" from="1243061721#0" to="246630090#1" departLane="best" type="veh_passenger"/>
    <trip id="veh4" depart="2.70" from="-23425566#1" to="123385022" departLane="best" type="veh_passenger"/>
    <trip id="veh5" depart="3.38" from="35767810" to="284834967#4" departLane="best" type="veh_passenger" departSpeed="max"/>
    <trip id="veh6" depart="4.05" from="1243743574#3" to="308378769" departLane="best" type="veh_passenger"/>
    <trip id="veh7" depart="4.73" from="532696001#0" to="-1225026749" departLane="best" type="veh_passenger"/>
    <trip id="veh8" depart="5.40" from="526213093#0" to="449991639#0" departLane="best" type="veh_passenger"/>
    <trip id="veh9" depart="6.08" from="1409641091#0" to="1162460369#0" departLane="best" type="veh_passenger" departSpeed="max"/>
    <trip id="veh10" depart="6.76" from="902155401" to="1409649738#0" departLane="best" type="veh_passenger"/>
    <trip id="veh11" depart="7.43" from="-84036382#1" to="-955133750#2" departLane="best" type="veh_passenger"/>
    <trip id="veh12" depart="8.11" from="546184105#3" to="314679881" departLane="best" type="veh_passenger"/>
    <trip id="veh13" depart="8.78" from="532436408#0" to="4744944#0" departLane="best" type="veh_passenger"/>
    <trip id="veh14" depart="9.46" from="26434305#1" to="907252499#0" departLane="best" type="veh_passenger"/>
    <trip id="veh15" depart="10.13" from="180717284#0" to="294056751#1" departLane="best" type="veh_passenger"/>
    <trip id="veh16" depart="10.81" from="544113526#0" to="328020781#0" departLane="best" type="veh_passenger"/>
    <trip id="veh17" depart="11.49" from="55065740#3" to="301453288" departLane="best" type="veh_passenger"/>
    <trip id="veh18" depart="12.16" from="449991639#5" to="-294056749#2" departLane="best" type="veh_passenger"/>
    <trip id="veh19" depart="12.84" from="1264827292" to="1408524837#0" departLane="best" type="veh_passenger" departSpeed="max"/>
    <trip id="veh20" depart="13.51" from="-541703429" to="129169442#0" departLane="best" type="veh_passenger"/>
    <trip id="veh21" depart="14.19" from="-908375889#1" to="1395710350" departLane="best" type="veh_passenger"/>
    <trip id="veh22" depart="14.86" from="34874723#0" to="178129414" departLane="best" type="veh_passenger"/>
    <trip id="veh23" depart="15.54" from="16628908#0" to="1239683618" departLane="best" type="veh_passenger"/>
    <trip id="veh24" depart="16.21" from="1382321714#0" to="86772180#2" departLane="best" type="veh_passenger"/>
    <trip id="veh25" depart="16.89" from="35682698#0" to="32015691#6" departLane="best" type="veh_passenger"/>
    <trip id="veh26" depart="17.57" from="1185662990#0" to="4744939#0" departLane="best" type="veh_passenger"/>
    <trip id="veh27" depart="18.24" from="1157644014#0" to="198597865#2" departLane="best" type="veh_passenger"/>
    <trip id="veh28" depart="18.92" from="918438452#0" to="35682617" departLane="best" type="veh_passenger"/>
    <trip id="veh29" depart="19.59" from="294056753#0" to="440369835#0" departLane="best" type="veh_passenger" departSpeed="max"/>
    <trip id="veh30" depart="20.27" from="545715326" to="4813522#4" departLane="best" type="veh_passenger" departSpeed="max"/>
    <trip id="veh31" depart="20.94" from="1264827299#0" to="-237805226#4" departLane="best" type="veh_passenger"/>
    <trip id="veh32" depart="21.62" from="1408604731#0" to="1391554614#1" departLane="best" type="veh_passenger"/>
    <trip id="veh33" depart="22.29" from="123634120#0" to="872347729" departLane="best" type="veh_passenger"/>
    <trip id="veh34" depart="22.97" from="577801297#0" to="1408647863" departLane="best" type="veh_passenger"/>
    <trip id="veh35" depart="23.65" from="395103328#0" to="226319971" departLane="best" type="veh_passenger"/>
    <trip id="veh36" depart="24.32" from="831157580#0" to="237914522#0" departLane="best" type="veh_passenger" departSpeed="max"/>
    <trip id="veh37" depart="25.00" from="1369695508#0" to="1352761260#4" departLane="best" type="veh_passenger"/>
    <trip id="veh38" depart="25.67" from="294085168" to="1382321714#0" departLane="best" type="veh_passenger"/>
    <trip id="veh39" depart="26.35" from="304693491#0" to="68506232#0" departLane="best" type="veh_passenger"/>
    <trip id="veh40" depart="27.02" from="96828124#0" to="246638753" departLane="best" type="veh_passenger" departSpeed="max"/>
    <trip id="veh41" depart="27.70" from="-664810111" to="-294849096#2" departLane="best" type="veh_passenger" departSpeed="max"/>
    <trip id="veh42" depart="28.37" from="1042655980#0" to="34054325#5" departLane="best" type="veh_passenger"/>
    <trip id="veh43" depart="29.05" from="491622344#0" to="237529477#3" departLane="best" type="veh_passenger"/>
    <trip id="veh44" depart="29.73" from="907252500#0" to="55065740#0" departLane="best" type="veh_passenger"/>
    <trip id="veh45" depart="30.40" from="-1239683617" to="45191454#1" departLane="best" type="veh_passenger"/>
    <trip id="veh46" depart="31.08" from="43037125#0" to="273229615#0" departLane="best" type="veh_passenger" departSpeed="max"/>
    <trip id="veh47" depart="31.75" from="13724827#0" to="35682698#1" departLane="best" type="veh_passenger"/>
    <trip id="veh48" depart="32.43" from="107323660#0" to="237652077#0" departLane="best" type="veh_passenger" departSpeed="max"/>
    <trip id="veh49" depart="33.10" from="237695636#1" to="880144105" departLane="best" type="veh_passenger"/>
    <trip id="veh50" depart="33.78" from="571448020#0" to="1382321715#0" departLane="best" type="veh_passenger"/>
    <trip id="veh51" depart="34.46" from="242715337#0" to="1218655150" departLane="best" type="veh_passenger"/>
    <trip id="veh52" depart="35.13" from="816764552#0" to="557065981#3" departLane="best" type="veh_passenger"/>
    <trip id="veh53" depart="35.81" from="1408525897#0" to="35549514#4" departLane="best" type="veh_passenger"/>
    <trip id="veh54" depart="36.48" from="316582572#0" to="1157643604#0" departLane="best" type="veh_passenger"/>
    <trip id="veh55" depart="37.16" from="4753816" to="277203504" departLane="best" type="veh_passenger" departSpeed="max"/>
    <trip id="veh56" depart="37.83" from="4813518#0" to="262723582#3" departLane="best" type="veh_passenger"/>
    <trip id="veh57" depart="38.51" from="-1077472976#3" to="1409614859#0" departLane="best" type="veh_passenger"/>
    <trip id="veh58" depart="39.18" from="-1395771681#1" to="8590854" departLane="best" type="veh_passenger"/>
    <trip id="veh59" depart="39.86" from="58401270#0" to="544164280#4" departLane="best" type="veh_passenger"/>
    <trip id="veh60" depart="40.54" from="1408564502#6" to="-35767880" departLane="best" type="veh_passenger"/>
    <trip id="veh61" depart="41.21" from="579981381#0" to="879179147#3" departLane="best" type="veh_passenger"/>
    <trip id="veh62" depart="41.89" from="-54847780#1" to="238862120#8" departLane="best" type="veh_passenger"/>
    <trip id="veh63" depart="42.56" from="-44027589#3" to="4776256#0" departLane="best" type="veh_passenger"/>
    <trip id="veh64" depart="43.24" from="4776526" to="1112404106#9" departLane="best" type="veh_passenger" departSpeed="max"/>
    <trip id="veh65" depart="43.91" from="237960949#7" to="293858827#0" departLane="best" type="veh_passenger"/>
    <trip id="veh66" depart="44.59" from="1369698946#0" to="570560372#1" departLane="best" type="veh_passenger"/>
    <trip id="veh67" depart="45.26" from="237522641#0" to="1243743574#0" departLane="best" type="veh_passenger"/>
    <trip id="veh68" depart="45.94" from="272639447#0" to="4744944#0" departLane="best" type="veh_passenger" departSpeed="max"/>
    <trip id="veh69" depart="46.62" from="1232210089#0" to="1408598863#3" departLane="best" type="veh_passenger"/>
    <trip id="veh70" depart="47.29" from="955133750#0" to="395946178" departLane="best" type="veh_passenger"/>
    <trip id="veh71" depart="47.97" from="237645185#3" to="24793649#0" departLane="best" type="veh_passenger"/>
    <trip id="veh72" depart="48.64" from="1094455300" to="1264827309#0" departLane="best" type="veh_passenger"/>
    <trip id="veh73" depart="49.32" from="1409634764" to="308355199#0" departLane="best" type="veh_passenger"/>
    <trip id="veh74" depart="49.99" from="-450020876#5" to="35066473" departLane="best" type="veh_passenger"/>
    <trip id="veh75" depart="50.67" from="1264827299#0" to="732998299" departLane="best" type="veh_passenger"/>
    <trip id="veh76" depart="51.34" from="550620361" to="-4753816" departLane="best" type="veh_passenger"/>
    <trip id="veh77" depart="52.02" from="1280717100#0" to="42884391#0" departLane="best" type="veh_passenger"/>
    <trip id="veh78" depart="52.70" from="12373020#5" to="1112801397#0" departLane="best" type="veh_passenger"/>
    <trip id="veh79" depart="53.37" from="868722651#4" to="295281240#0" departLane="best" type="veh_passenger"/>
    <trip id="veh80" depart="54.05" from="237960946#0" to="490175814#0" departLane="best" type="veh_passenger"/>
    <trip id="veh81" depart="54.72" from="532504847#0" to="1227317193#4" departLane="best" type="veh_passenger"/>
    <trip id="veh82" depart="55.40" from="237522643#0" to="237960946#0" departLane="best" type="veh_passenger"/>
    <trip id="veh83" depart="56.07" from="4743390#5" to="43037132#2" departLane="best" type="veh_passenger"/>
    <trip id="veh84" depart="56.75" from="914000427#0" to="1007205016" departLane="best" type="veh_passenger"/>
    <trip id="veh85" depart="57.43" from="225712055#0" to="1409652517#0" departLane="best" type="veh_passenger" departSpeed="max"/>
    <trip id="veh86" depart="58.10" from="55065740#3" to="1354683581#1" departLane="best" type="veh_passenger"/>
    <trip id="veh87" depart="58.78" from="1225776662#0" to="237790228#0" departLane="best" type="veh_passenger"/>
    <trip id="veh88" depart="59.45" from="237521116#2" to="1395710353" departLane="best" type="veh_passenger"/>
    <trip id="veh89" depart="60.13" from="1327959237#0" to="8380873#0" departLane="best" type="veh_passenger" departSpeed="max"/>
    <trip id="veh90" depart="60.80" from="237649292#0" to="55065740#4" departLane="best" type="veh_passenger"/>
    <trip id="veh91" depart="61.48" from="287683998#2" to="-308379364#2" departLane="best" type="veh_passenger"/>
    <trip id="veh92" depart="62.15" from="978248749#1" to="544248640#2" departLane="best" type="veh_passenger"/>
    <trip id="veh93" depart="62.83" from="906505550#1" to="848503523" departLane="best" type="veh_passenger"/>
    <trip id="veh94" depart="63.51" from="54678281#1" to="1192511294" departLane="best" type="veh_passenger"/>
    <trip id="veh95" depart="64.18" from="238326399#0" to="1243743574#4" departLane="best" type="veh_passenger"/>
    <trip id="veh96" depart="64.86" from="220275375" to="-396947540#1" departLane="best" type="veh_passenger" departSpeed="max"/>
    <trip id="veh97" depart="65.53" from="181460435#2" to="911389015" departLane="best" type="veh_passenger"/>
    <trip id="veh98" depart="66.21" from="237695643#0" to="237529479#5" departLane="best" type="veh_passenger"/>
    <trip id="veh99" depart="66.88" from="902155401" to="932391853#0" departLane="best" type="veh_passenger"/>
    <trip id="veh100" depart="67.56" from="294056751#5" to="45185736#0" departLane="best" type="veh_passenger"/>
    <trip id="veh101" depart="68.23" from="906505549" to="301459433" departLane="best" type="veh_passenger"/>
    <trip id="veh102" depart="68.91" from="-312272297" to="306130984" departLane="best" type="veh_passenger"/>
    <trip id="veh103" depart="69.59" from="243591204#8" to="549518612#1" departLane="best" type="veh_passenger"/>
    <trip id="veh104" depart="70.26" from="-542503069#4" to="1225776662#0" departLane="best" type="veh_passenger"/>
    <trip id="veh105" depart="70.94" from="308861419#0" to="43125909#0" departLane="best" type="veh_passenger"/>
    <trip id="veh106" depart="71.61" from="1264830122#0" to="1108376145" departLane="best" type="veh_passenger" departSpeed="max"/>
    <trip id="veh107" depart="72.29" from="664808382" to="1352761260#0" departLane="best" type="veh_passenger"/>
    <trip id="veh108" depart="72.96" from="308861418#0" to="330913949#0" departLane="best" type="veh_passenger"/>
    <trip id="veh109" depart="73.64" from="237515358#4" to="306130984" departLane="best" type="veh_passenger"/>
    <trip id="veh110" depart="74.31" from="123341644" to="450613277#4" departLane="best" type="veh_passenger"/>
    <trip id="veh111" depart="74.99" from="1283000065#0" to="226319971" departLane="best" type="veh_passenger"/>
    <trip id="veh112" depart="75.67" from="427755903" to="1408563667#0" departLane="best" type="veh_passenger"/>
    <trip id="veh113" depart="76.34" from="1408620377#0" to="4752000#0" departLane="best" type="veh_passenger"/>
    <trip id="veh114" depart="77.02" from="-45185735#5" to="237910183#0" departLane="best" type="veh_passenger" departSpeed="max"/>
    <trip id="veh115" depart="77.69" from="972011259#0" to="9412963#0" departLane="best" type="veh_passenger"/>
    <trip id="veh116" depart="78.37" from="-45521733" to="1243743574#3" departLane="best" type="veh_passenger" departSpeed="max"/>
    <trip id="veh117" depart="79.04" from="1369698946#0" to="86301093#0" departLane="best" type="veh_passenger"/>
    <trip id="veh118" depart="79.72" from="165842957#0" to="1162510290#0" departLane="best" type="veh_passenger"/>
    <trip id="veh119" depart="80.40" from="544215269#0" to="450139789" departLane="best" type="veh_passenger"/>
    <trip id="veh120" depart="81.07" from="316789524#0" to="915626725" departLane="best" type="veh_passenger"/>
    <trip id="veh121" depart="81.75" from="37067695#3" to="-123162834#0" departLane="best" type="veh_passenger"/>
    <trip id="veh122" depart="82.42" from="541430463#5" to="1408548657#0" departLane="best" type="veh_passenger"/>
    <trip id="veh123" depart="83.10" from="41643021#5" to="87031379#3" departLane="best" type="veh_passenger"/>
    <trip id="veh124" depart="83.77" from="1112404106#0" to="1094454894#2" departLane="best" type="veh_passenger"/>
    <trip id="veh125" depart="84.45" from="1028683570#1" to="294056753#1" departLane="best" type="veh_passenger"/>
    <trip id="veh126" depart="85.12" from="1391886571" to="314679885#0" departLane="best" type="veh_passenger"/>
    <trip id="veh127" depart="85.80" from="450373529#0" to="123616988" departLane="best" type="veh_passenger"/>
    <trip id="veh128" depart="86.48" from="34609520#0" to="1384256299#4" departLane="best" type="veh_passenger" departSpeed="max"/>
    <trip id="veh129" depart="87.15" from="238768631" to="732998299" departLane="best" type="veh_passenger"/>
    <trip id="veh130" depart="87.83" from="546148432#0" to="-907015227#0" departLane="best" type="veh_passenger"/>
    <trip id="veh131" depart="88.50" from="237522643#0" to="1395147160#2" departLane="best" type="veh_passenger"/>
    <trip id="veh132" depart="89.18" from="4746243#9" to="294056751#0" departLane="best" type="veh_passenger"/>
    <trip id="veh133" depart="89.85" from="237529476#3" to="-1235264093#2" departLane="best" type="veh_passenger"/>
    <trip id="veh134" depart="90.53" from="-4743390#4" to="612296800" departLane="best" type="veh_passenger"/>
    <trip id="veh135" depart="91.20" from="777231956" to="287670532#0" departLane="best" type="veh_passenger" departSpeed="max"/>
    <trip id="veh136" depart="91.88" from="544243187" to="304693491#0" departLane="best" type="veh_passenger"/>
    <trip id="veh137" depart="92.56" from="1112883658#4" to="1112404106#0" departLane="best" type="veh_passenger"/>
    <trip id="veh138" depart="93.23" from="1408564502#9" to="68506253#0" departLane="best" type="veh_passenger"/>
    <trip id="veh139" depart="93.91" from="501285347#0" to="55065738" departLane="best" type="veh_passenger"/>
    <trip id="veh140" depart="94.58" from="68506253#2" to="1240777478" departLane="best" type="veh_passenger"/>
    <trip id="veh141" depart="95.26" from="132747589#0" to="103348976#0" departLane="best" type="veh_passenger"/>
    <trip id="veh142" depart="95.93" from="4813522#6" to="62125871" departLane="best" type="veh_passenger"/>
    <trip id="veh143" depart="96.61" from="230770490#0" to="330913949#0" departLane="best" type="veh_passenger" departSpeed="max"/>
    <trip id="veh144" depart="97.29" from="1112893305#0" to="86056631#0" departLane="best" type="veh_passenger"/>
    <trip id="veh145" depart="97.96" from="552422732#0" to="908375872#4" departLane="best" type="veh_passenger"/>
    <trip id="veh146" depart="98.64" from="53357023#3" to="601810762#0" departLane="best" type="veh_passenger"/>
    <trip id="veh147" depart="99.31" from="-198184601#0" to="4746042#0" departLane="best" type="veh_passenger"/>
    <trip id="veh148" depart="99.99" from="525638414#0" to="552422732#0" departLane="best" type="veh_passenger"/>
    <trip id="veh149" depart="100.66" from="53357023#2" to="1384525340#2" departLane="best" type="veh_passenger"/>
    <trip id="veh150" depart="101.34" from="490175812#2" to="1065887039" departLane="best" type="veh_passenger"/>
    <trip id="veh151" depart="102.01" from="570088936#0" to="55038195#1" departLane="best" type="veh_passenger"/>
    <trip id="veh152" depart="102.69" from="1259775741#0" to="542500767#0" departLane="best" type="veh_passenger"/>
    <trip id="veh153" depart="103.37" from="237805203" to="1408564502#9" departLane="best" type="veh_passenger"/>
    <trip id="veh154" depart="104.04" from="49844253#5" to="1264830106" departLane="best" type="veh_passenger"/>
    <trip id="veh155" depart="104.72" from="-18596059" to="123161135" departLane="best" type="veh_passenger"/>
    <trip id="veh156" depart="105.39" from="1409297989#0" to="552422733#0" departLane="best" type="veh_passenger"/>
    <trip id="veh157" depart="106.07" from="908570511#0" to="269149015#0" departLane="best" type="veh_passenger"/>
    <trip id="veh158" depart="106.74" from="871723176" to="1094454894#2" departLane="best" type="veh_passenger" departSpeed="max"/>
    <trip id="veh159" depart="107.42" from="907015227#1" to="1218655150" departLane="best" type="veh_passenger"/>
    <trip id="veh160" depart="108.09" from="905380775" to="1384274567#9" departLane="best" type="veh_passenger"/>
    <trip id="veh161" depart="108.77" from="1033980829" to="237649293#0" departLane="best" type="veh_passenger"/>
    <trip id="veh162" depart="109.45" from="4743390#1" to="1408645395#0" departLane="best" type="veh_passenger"/>
    <trip id="veh163" depart="110.12" from="313395786#8" to="246638755" departLane="best" type="veh_passenger"/>
    <trip id="veh164" depart="110.80" from="198184093" to="300664625" departLane="best" type="veh_passenger" departSpeed="max"/>
    <trip id="veh165" depart="111.47" from="1353407053#0" to="450200071#0" departLane="best" type="veh_passenger"/>
    <trip id="veh166" depart="112.15" from="-1094454894#4" to="848503522" departLane="best" type="veh_passenger"/>
    <trip id="veh167" depart="112.82" from="271470038#0" to="45185740#3" departLane="best" type="veh_passenger"/>
    <trip id="veh168" depart="113.50" from="4746923#3" to="43037119#4" departLane="best" type="veh_passenger"/>
    <trip id="veh169" depart="114.17" from="158922103#3" to="-4750220#0" departLane="best" type="veh_passenger"/>
    <trip id="veh170" depart="114.85" from="422439069#0" to="1409635280#1" departLane="best" type="veh_passenger"/>
    <trip id="veh171" depart="115.53" from="1408598861#2" to="54678285" departLane="best" type="veh_passenger"/>
    <trip id="veh172" depart="116.20" from="450610285#0" to="1408563667#0" departLane="best" type="veh_passenger"/>
    <trip id="veh173" depart="116.88" from="1408570131#0" to="237515355#0" departLane="best" type="veh_passenger"/>
    <trip id="veh174" depart="117.55" from="223928339#0" to="1408525899#0" departLane="best" type="veh_passenger"/>
    <trip id="veh175" depart="118.23" from="1108821571" to="237529475#0" departLane="best" type="veh_passenger" departSpeed="max"/>
    <trip id="veh176" depart="118.90" from="730337227#12" to="32435377#0" departLane="best" type="veh_passenger"/>
    <trip id="veh177" depart="119.58" from="1408526882" to="288454797#2" departLane="best" type="veh_passenger"/>
    <trip id="veh178" depart="120.26" from="-10428122" to="140001530#0" departLane="best" type="veh_passenger"/>
    <trip id="veh179" depart="120.93" from="237529495#0" to="301459439" departLane="best" type="veh_passenger"/>
    <trip id="veh180" depart="121.61" from="373434809" to="237923126#0" departLane="best" type="veh_passenger"/>
    <trip id="veh181" depart="122.28" from="237649291#0" to="1243743574#4" departLane="best" type="veh_passenger" departSpeed="max"/>
    <trip id="veh182" depart="122.96" from="237960946#4" to="68506265#0" departLane="best" type="veh_passenger"/>
    <trip id="veh183" depart="123.63" from="501285347#0" to="1206387470" departLane="best" type="veh_passenger"/>
    <trip id="veh184" depart="124.31" from="-544641226#1" to="24793409#3" departLane="best" type="veh_passenger"/>
    <trip id="veh185" depart="124.98" from="34054325#0" to="1409643074#0" departLane="best" type="veh_passenger"/>
    <trip id="veh186" depart="125.66" from="542169700#0" to="4751998#9" departLane="best" type="veh_passenger"/>
    <trip id="veh187" depart="126.34" from="42819748#3" to="1264827309#0" departLane="best" type="veh_passenger"/>
    <trip id="veh188" depart="127.01" from="1228808793#2" to="-185957649#1" departLane="best" type="veh_passenger"/>
    <trip id="veh189" depart="127.69" from="1307265857" to="238324872#0" departLane="best" type="veh_passenger"/>
    <trip id="veh190" depart="128.36" from="237506959#0" to="34908902#3" departLane="best" type="veh_passenger"/>
    <trip id="veh191" depart="129.04" from="1227311558" to="449991637#3" departLane="best" type="veh_passenger"/>
    <trip id="veh192" depart="129.71" from="239195662#4" to="134123334#0" departLane="best" type="veh_passenger"/>
    <trip id="veh193" depart="130.39" from="395946177#1" to="-119962891" departLane="best" type="veh_passenger"/>
    <trip id="veh194" depart="131.06" from="4750224#1" to="478525271#0" departLane="best" type="veh_passenger"/>
    <trip id="veh195" depart="131.74" from="1025549393#1" to="237549912#0" departLane="best" type="veh_passenger"/>
    <trip id="veh196" depart="132.42" from="1210868746#0" to="900167872#1" departLane="best" type="veh_passenger"/>
    <trip id="veh197" depart="133.09" from="24793631#1" to="-308378772#3" departLane="best" type="veh_passenger"/>
    <trip id="veh198" depart="133.77" from="1321543050" to="54678286#3" departLane="best" type="veh_passenger"/>
    <trip id="veh199" depart="134.44" from="237790226#0" to="526210689" departLane="best" type="veh_passenger"/>
    <trip id="veh200" depart="135.12" from="42492331#0" to="916766792" departLane="best" type="veh_passenger"/>
    <trip id="veh201" depart="135.79" from="309055985#0" to="879179148#19" departLane="best" type="veh_passenger"/>
    <trip id="veh202" depart="136.47" from="666707719" to="32434715#0" departLane="best" type="veh_passenger"/>
    <trip id="veh203" depart="137.14" from="450423878#0" to="246287560#2" departLane="best" type="veh_passenger"/>
    <trip id="veh204" depart="137.82" from="544164277#0" to="288454797#2" departLane="best" type="veh_passenger"/>
    <trip id="veh205" depart="138.50" from="68506232#0" to="4750176#6" departLane="best" type="veh_passenger"/>
    <trip id="veh206" depart="139.17" from="237960949#0" to="1370026144#0" departLane="best" type="veh_passenger"/>
    <trip id="veh207" depart="139.85" from="131300167#0" to="35467475" departLane="best" type="veh_passenger" departSpeed="max"/>
    <trip id="veh208" depart="140.52" from="330913954#0" to="1395142048#0" departLane="best" type="veh_passenger" departSpeed="max"/>
    <trip id="veh209" depart="141.20" from="-524963566#3" to="140001523#0" departLane="best" type="veh_passenger"/>
    <trip id="veh210" depart="141.87" from="1388329085#0" to="1408687441#3" departLane="best" type="veh_passenger"/>
    <trip id="veh211" depart="142.55" from="1264830088" to="449991630#0" departLane="best" type="veh_passenger"/>
    <trip id="veh212" depart="143.23" from="450020890#0" to="-444717169#3" departLane="best" type="veh_passenger"/>
    <trip id="veh213" depart="143.90" from="237506963#0" to="12373020#3" departLane="best" type="veh_passenger"/>
    <trip id="veh214" depart="144.58" from="237521092#0" to="732998299" departLane="best" type="veh_passenger"/>
    <trip id="veh215" depart="145.25" from="304693486#0" to="449991634#2" departLane="best" type="veh_passenger"/>
    <trip id="veh216" depart="145.93" from="55037932#0" to="4776835" departLane="best" type="veh_passenger"/>
    <trip id="veh217" depart="146.60" from="18522669#0" to="-119962891" departLane="best" type="veh_passenger"/>
    <trip id="veh218" depart="147.28" from="1409652521#0" to="4752003#5" departLane="best" type="veh_passenger"/>
    <trip id="veh219" depart="147.95" from="237515358#4" to="4750224#1" departLane="best" type="veh_passenger"/>
    <trip id="veh220" depart="148.63" from="284450145#2" to="314679876#0" departLane="best" type="veh_passenger"/>
    <trip id="veh221" depart="149.31" from="1243743574#4" to="126304603#0" departLane="best" type="veh_passenger"/>
    <trip id="veh222" depart="149.98" from="237555370" to="-225712055#0" departLane="best" type="veh_passenger"/>
    <trip id="veh223" depart="150.66" from="228671310#0" to="1191414433" departLane="best" type="veh_passenger"/>
    <trip id="veh224" depart="151.33" from="237914522#0" to="1112404106#2" departLane="best" type="veh_passenger"/>
    <trip id="veh225" depart="152.01" from="20475367" to="295124097#0" departLane="best" type="veh_passenger"/>
    <trip id="veh226" depart="152.68" from="-237506963#3" to="35764925" departLane="best" type="veh_passenger"/>
    <trip id="veh227" depart="153.36" from="-296827092#1" to="198597865#14" departLane="best" type="veh_passenger" departSpeed="max"/>
    <trip id="veh228" depart="154.03" from="123655282#1" to="1409620049#0" departLane="best" type="veh_passenger"/>
    <trip id="veh229" depart="154.71" from="4752118" to="198597865#2" departLane="best" type="veh_passenger"/>
    <trip id="veh230" depart="155.39" from="4750228#3" to="544164281#0" departLane="best" type="veh_passenger"/>
    <trip id="veh231" depart="156.06" from="134123334#0" to="-545932590#2" departLane="best" type="veh_passenger"/>
    <trip id="veh232" depart="156.74" from="-1395771681#1" to="277203504" departLane="best" type="veh_passenger"/>
    <trip id="veh233" depart="157.41" from="98747308" to="145565048#0" departLane="best" type="veh_passenger"/>
    <trip id="veh234" depart="158.09" from="35767810" to="483469781#9" departLane="best" type="veh_passenger" departSpeed="max"/>
    <trip id="veh235" depart="158.76" from="35768301" to="4752018#3" departLane="best" type="veh_passenger"/>
    <trip id="veh236" depart="159.44" from="879179148#6" to="1235264094#0" departLane="best" type="veh_passenger"/>
    <trip id="veh237" depart="160.11" from="-1409620054#3" to="1157643604#0" departLane="best" type="veh_passenger"/>
    <trip id="veh238" depart="160.79" from="1108418334#0" to="42884392#0" departLane="best" type="veh_passenger"/>
    <trip id="veh239" depart="161.47" from="294493312#5" to="1259775741#0" departLane="best" type="veh_passenger"/>
    <trip id="veh240" depart="162.14" from="449991630#0" to="4776850#0" departLane="best" type="veh_passenger"/>
    <trip id="veh241" depart="162.82" from="116315093#0" to="316582576#0" departLane="best" type="veh_passenger"/>
    <trip id="veh242" depart="163.49" from="4750178#0" to="1092589334#0" departLane="best" type="veh_passenger"/>
    <trip id="veh243" depart="164.17" from="542495910#1" to="905524540" departLane="best" type="veh_passenger"/>
    <trip id="veh244" depart="164.84" from="103348976#0" to="-198184093" departLane="best" type="veh_passenger"/>
    <trip id="veh245" depart="165.52" from="903019486#0" to="226319974" departLane="best" type="veh_passenger"/>
    <trip id="veh246" depart="166.20" from="450200075" to="-541430462#3" departLane="best" type="veh_passenger"/>
    <trip id="veh247" depart="166.87" from="440369835#0" to="34054325#3" departLane="best" type="veh_passenger"/>
    <trip id="veh248" depart="167.55" from="-918487974" to="478725549#0" departLane="best" type="veh_passenger"/>