<?xml version="1.0" encoding="UTF-8"?>

<!-- generated on 2025-08-24 08:41:42 by Eclipse SUMO netconvert Version 1.24.0
<netconvertConfiguration xmlns:xsi="http://www.w3.org/2001/XMLSchema-instance" xsi:noNamespaceSchemaLocation="http://sumo.dlr.de/xsd/netconvertConfiguration.xsd">

    <input>
        <type-files value="${SUMO_HOME}\data\typemap\osmNetconvert.typ.xml,${SUMO_HOME}\data\typemap\osmNetconvertAerialway.typ.xml"/>
        <osm-files value="osm_bbox.osm.xml.gz"/>
    </input>

    <output>
        <output-file value="osm.net.xml.gz"/>
        <output.street-names value="true"/>
        <output.original-names value="true"/>
        <ptstop-output value="osm_stops.add.xml"/>
        <ptline-output value="osm_ptlines.xml"/>
        <ptline-clean-up value="true"/>
    </output>

    <projection>
        <proj.utm value="true"/>
    </projection>

    <processing>
        <geometry.remove value="true"/>
        <roundabouts.guess value="true"/>
    </processing>

    <tls_building>
        <tls.discard-simple value="true"/>
        <tls.join value="true"/>
        <tls.guess-signals value="true"/>
        <tls.default-type value="actuated"/>
    </tls_building>

    <ramp_guessing>
        <ramps.guess value="true"/>
    </ramp_guessing>

    <junctions>
        <junctions.join value="true"/>
        <junctions.corner-detail value="5"/>
    </junctions>

    <railway>
        <railway.topology.repair value="true"/>
    </railway>

</netconvertConfiguration>
-->

<additional xmlns:xsi="http://www.w3.org/2001/XMLSchema-instance" xsi:noNamespaceSchemaLocation="http://sumo.dlr.de/xsd/additional_file.xsd">
    <busStop id="-11573383354" name="Barcelona - c. Tarragona" lane="-1245668409#1_0" startPos="48.22" endPos="63.22" friendlyPos="true" lines="LN 102 Olot - Amer - Barcelona">
        <access lane="1395746248_0" pos="0.09" length="92.58" friendlyPos="1"/>
        <access lane="1395746249_0" pos="0.20" length="76.15" friendlyPos="1"/>
        <access lane="1408548658_0" pos="6.84" length="89.00" friendlyPos="1"/>
        <access lane="549448471_0" pos="0.00" length="75.03" friendlyPos="1"/>
        <access lane="905524540_0" pos="33.37" length="11.91" friendlyPos="1"/>
    </busStop>
    <busStop id="-11573383354@17179588" name="Barcelona - c. Tarragona" lane="-1245668409#1_0" startPos="48.22" endPos="63.22" friendlyPos="true" lines="LN 102 Barcelona - Amer - Olot">
        <access lane="1395746248_0" pos="0.09" length="92.58" friendlyPos="1"/>
        <access lane="1395746249_0" pos="0.20" length="76.15" friendlyPos="1"/>
        <access lane="1408548658_0" pos="6.84" length="89.00" friendlyPos="1"/>
        <access lane="549448471_0" pos="0.00" length="75.03" friendlyPos="1"/>
        <access lane="905524540_0" pos="33.37" length="11.91" friendlyPos="1"/>
    </busStop>
    <busStop id="-12075420266" name="Av. Diagonal - Dr. Ferran" lane="-543400542#2_0" startPos="31.13" endPos="46.13" friendlyPos="true" lines="e22 e2.2 e8 e18 L67"/>
    <busStop id="-12106306191" name="Tarragona - Mallorca" lane="-1307212579#3_0" startPos="45.74" endPos="60.74" friendlyPos="true" lines="N0 D40 109 115 CJ L94">
        <access lane="1307212578_0" pos="0.00" length="54.43" friendlyPos="1"/>
        <access lane="1395752172#0_0" pos="0.00" length="60.95" friendlyPos="1"/>
        <access lane="208708605#0_0" pos="52.57" length="11.37" friendlyPos="1"/>
        <access lane="42495435#0_0" pos="0.00" length="54.14" friendlyPos="1"/>
        <access lane="540074155#0_0" pos="0.00" length="58.79" friendlyPos="1"/>
    </busStop>
    <busStop id="-12106307036" name="Pg Sant Antoni, 53-55" lane="-1239683617_0" startPos="35.53" endPos="50.53" friendlyPos="true" lines="N23 H10 78 27 L94"/>
    <busStop id="-12694287056" name="Casa Batlló - Museu Tàpies" lane="-908375883#3_0" startPos="52.46" endPos="67.46" friendlyPos="true" lines="100 101"/>
    <busStop id="-12815640391" name="Av. Diagonal - Dr. Fleming (C.C. L&apos;illa)" lane="-283778455#4_0" startPos="97.87" endPos="112.87" friendlyPos="true" lines="L68 L64 e8 e17 e20 L61 L63"/>
    <busStop id="-12884682177" name="Av. Diagonal (Maria Cristina)" lane="-543400542#2_0" startPos="71.70" endPos="86.70" friendlyPos="true" lines="Bus: Barcelona =&gt; Guimerà L1050a e5 e6 e15.2"/>
    <busStop id="-12895749915" name="Diagonal - Francesc Macià" lane="-1393135023_0" startPos="14.53" endPos="29.53" friendlyPos="true" lines="e8"/>
    <busStop id="-1374308501" name="Pl. Pius XII" lane="-871723195_0" startPos="7.78" endPos="22.78" friendlyPos="true" lines="V5 63 78"/>
    <busStop id="-1457780061" name="Riera de Cassoles - Via Augusta" lane="-32015709#1_0" startPos="15.49" endPos="30.49" friendlyPos="true" lines="N24 V17 22 24 87"/>
    <busStop id="-2745572516" name="Santa Amèlia - Or" lane="-198184601#1_0" startPos="5.31" endPos="20.31" friendlyPos="true" lines="130"/>
    <busStop id="-323191079" name="Via Augusta - Calvet" lane="-1395142054#2_0" startPos="11.65" endPos="26.65" friendlyPos="true" lines="68 N7 V11"/>
    <busStop id="-364731358" name="Av. Diagonal - Dr. Ferran" lane="-543400542#2_0" startPos="30.59" endPos="45.59" friendlyPos="true" lines="L1050a"/>
    <busStop id="-4040253773" name="Plaça Universitat - Pelai" lane="-545932590#2_0" startPos="18.92" endPos="33.92" friendlyPos="true" lines="N4 H16 N6 D50"/>
    <busStop id="-5099400282" name="Tarragona-Parc de Joan Miró" lane="-542990488#3_0" startPos="43.04" endPos="58.04" friendlyPos="true" lines="109">
        <access lane="243598398#1_0" pos="0.00" length="56.14" friendlyPos="1"/>
        <access lane="540074144_0" pos="30.51" length="46.54" friendlyPos="1"/>
        <access lane="540074145_0" pos="29.73" length="65.53" friendlyPos="1"/>
        <access lane="540074147#0_0" pos="52.90" length="5.38" friendlyPos="1"/>
        <access lane="905524542#0_0" pos="49.61" length="20.44" friendlyPos="1"/>
    </busStop>
    <busStop id="-5127179247" name="Pg. Reina Elisenda - Major de Sarrià" lane="-145033028#3_0" startPos="19.78" endPos="34.78" friendlyPos="true" lines="68 N7 H4"/>
    <busStop id="-5214067405" name="Diagonal - Pl Pius XII" lane="-253360734#4_0" startPos="34.14" endPos="49.14" friendlyPos="true" lines="e15.2"/>
    <busStop id="-5256357715" name="Pl Pius XII" lane="-68506232#2_0" startPos="25.24" endPos="40.24" friendlyPos="true" lines="X97 X84 X83 7 H6 33 L97"/>
    <busStop id="-5259830245" name="Les Corts - Vallespir" lane="-544124172#1_0" startPos="77.84" endPos="92.84" friendlyPos="true" lines="H8 59"/>
    <busStop id="-5260292356" name="Diagonal - Muntaner" lane="-257568505#2_0" startPos="41.06" endPos="56.06" friendlyPos="true" lines="34"/>
    <busStop id="-5260292357" name="Diagonal - Francesc Macià" lane="-544617968#2_0" startPos="36.49" endPos="51.49" friendlyPos="true" lines="7 H8 33 6 34"/>
    <busStop id="-5260601899" name="Diagonal - Passeig de Gràcia" lane="-116315069#1_0" startPos="40.37" endPos="55.37" friendlyPos="true" lines="H8 34 6 33"/>
    <busStop id="-5264394016" name="Diagonal - Balmes" lane="-544617969_0" startPos="0.00" endPos="15.00" friendlyPos="true" lines="34"/>
    <busStop id="-5341631255" name="Diagonal - Pl Reina Maria Cristina" lane="-294056749#2_0" startPos="37.39" endPos="52.39" friendlyPos="true" lines="X30 X43 X79 X97 175 X84 X83 7 567 L68 L64 N12 V5 63 78 33 67 M14 L97 e17 e20 L61 L63"/>
    <busStop id="-5341631256" name="Diagonal - Numància" lane="-129169441_0" startPos="51.94" endPos="66.94" friendlyPos="true" lines="X30 X43 X79 X97 X84 X83 7 N12 63 78 33 67 M14 L97"/>
    <busStop id="-5341631257" name="Diagonal - Doctor Fleming" lane="-283778455#4_0" startPos="53.27" endPos="68.27" friendlyPos="true" lines="X30 X79 7 N12 63 78 33 67 e15.2 e18"/>
    <busStop id="-5341631258" name="Diagonal - Ganduxer" lane="-1393135023_0" startPos="114.07" endPos="129.07" friendlyPos="true" lines="7 34 N12 63 6 33 67"/>
    <busStop id="-5375631705" name="Passeig de Gràcia - La Pedrera" lane="-908375867#2_0" startPos="44.20" endPos="59.20" friendlyPos="true" lines="101"/>
    <busStop id="-5572252923" name="Diagonal - Pl Pius XII" lane="-253360734#4_0" startPos="34.08" endPos="49.08" friendlyPos="true" lines="X30 X43 X79 175 N12 67 M14"/>
    <busStop id="-5603006498" name="Pg de Gràcia - Gran Via" lane="-908375889#1_0" startPos="29.45" endPos="44.45" friendlyPos="true" lines="N24 7 N5 N6 N9 V15 22 24"/>
    <busStop id="-5603009321" name="Pg de Gràcia - Aragó" lane="-293858828#3_0" startPos="66.13" endPos="81.13" friendlyPos="true" lines="N24 7 N5 N6 N9 V15 22 24"/>
    <busStop id="-5760480311" name="Pg. de Gràcia - Ronda de Sant Pere" lane="-549518619_0" startPos="45.67" endPos="60.67" friendlyPos="true" lines="19"/>
    <busStop id="-7757144476" name="Metro Tarragona" lane="-315272795#2_0" startPos="40.21" endPos="55.21" friendlyPos="true" lines="N0 D40 109 115 CJ L94">
        <access lane="549448472_0" pos="0.00" length="68.04" friendlyPos="1"/>
        <access lane="549448477_0" pos="10.37" length="71.47" friendlyPos="1"/>
        <access lane="60344581#0_0" pos="0.00" length="88.10" friendlyPos="1"/>
        <access lane="853255411#0_0" pos="47.90" length="12.14" friendlyPos="1"/>
        <access lane="905524538#0_0" pos="55.60" length="14.31" friendlyPos="1"/>
    </busStop>
    <busStop id="-8047001098" name="Gran Via Carles III - Av. Diagonal" lane="-910513645_0" startPos="0.00" endPos="7.92" friendlyPos="true" lines="X97 X84 X83"/>
    <busStop id="-8050203730" name="Flos i Calcat - l&apos;Illa" lane="-864123947_0" startPos="48.96" endPos="63.96" friendlyPos="true" lines="M14"/>
    <busStop id="-8168365822" name="Pg Reina Elisenda - Major de Sarrià" lane="-145033028#3_0" startPos="19.75" endPos="34.75" friendlyPos="true" lines="N7 H4"/>
    <busStop id="-8168365823" name="Pg Bonanova - Carrasco i Formiguera" lane="-238862117#4_0" startPos="62.44" endPos="77.44" friendlyPos="true" lines="H4"/>
    <busStop id="-8173979186" name="Travessera de Gràcia - Calvet" lane="-1162502334_0" startPos="22.79" endPos="37.79" friendlyPos="true" lines="D40 27"/>
    <busStop id="-8173979187" name="Travessera de Gràcia - Muntaner" lane="-237506962#0_0" startPos="0.00" endPos="0.20" friendlyPos="true" lines="D40 27">
        <access lane="-997359719_0" pos="0.20" length="15.87" friendlyPos="1"/>
        <access lane="237506962#0_1" pos="0.00" length="7.30" friendlyPos="1"/>
        <access lane="237506962#1_1" pos="0.00" length="15.14" friendlyPos="1"/>
        <access lane="800839320_0" pos="0.00" length="16.35" friendlyPos="1"/>
        <access lane="997359719_0" pos="0.00" length="16.96" friendlyPos="1"/>
    </busStop>
    <busStop id="-8180054861" name="Av. J. V. Foix - Pedró de la Creu" lane="-32674101#6_0" startPos="144.64" endPos="159.64" friendlyPos="true" lines="V3 130"/>
    <busStop id="-8190463692" name="Les Corts - Carles III" lane="-544124173#2_0" startPos="18.36" endPos="33.36" friendlyPos="true" lines="H8 V5 59"/>
    <busStop id="-8190463693" name="Les Corts - Maternitat" lane="-544124176_0" startPos="58.81" endPos="73.81" friendlyPos="true" lines="H8"/>
    <busStop id="-8190463694" name="Les Corts - Benavent" lane="-1395771681#1_0" startPos="47.45" endPos="62.45" friendlyPos="true" lines="H8"/>
    <busStop id="-8190463696" name="Travessera de les Corts - Comte de Güell" lane="-165526880#2_0" startPos="24.22" endPos="39.22" friendlyPos="true" lines="H8"/>
    <busStop id="-8191099731" name="Diagonal - Muntaner" lane="-257568505#2_0" startPos="41.06" endPos="56.06" friendlyPos="true" lines="H8 7 6 33"/>
    <busStop id="-8191099732" name="Diagonal - Balmes" lane="-544617969_0" startPos="25.55" endPos="40.55" friendlyPos="true" lines="H8 7 6 33"/>
    <busStop id="-8193559512" name="Pl Pius XII" lane="-871723195_0" startPos="7.70" endPos="22.70" friendlyPos="true" lines="V5 63 78"/>
    <busStop id="-8194685211" name="Pg Sant Joan Bosco" lane="-35682480#2_0" startPos="94.95" endPos="109.95" friendlyPos="true" lines="V7"/>
    <busStop id="-8194685216" name="Els Vergós" lane="-444717169#2_0" startPos="34.63" endPos="49.63" friendlyPos="true" lines="V7"/>
    <busStop id="-8194688619" name="Av Sarrià" lane="-173223707#4_0" startPos="0.00" endPos="11.09" friendlyPos="true" lines="V7"/>
    <busStop id="-8194688620" name="Constança" lane="-175002302_0" startPos="64.03" endPos="79.03" friendlyPos="true" lines="V7"/>
    <busStop id="-8199176443" name="Via Augusta - Ronda General Mitre" lane="-902154887#1_0" startPos="0.00" endPos="15.00" friendlyPos="true" lines="68 V9"/>
    <busStop id="-8203768653" name="Via Augusta - Ganduxer" lane="-1395142056#2_0" startPos="22.00" endPos="37.00" friendlyPos="true" lines="68 N7"/>
    <busStop id="-8214234939" name="Pl Molina" lane="-237659854#1_0" startPos="0.00" endPos="0.20" friendlyPos="true" lines="N5 V15"/>
    <busStop id="-8214234941" name="Pg de Gràcia - Diagonal" lane="-116343001#2_0" startPos="43.56" endPos="58.56" friendlyPos="true" lines="N24 7 N5 V15 22 24"/>
    <busStop id="-8214234942" name="Pg de Gràcia - Mallorca" lane="-524963566#6_0" startPos="47.90" endPos="62.90" friendlyPos="true" lines="N61 N24 7 N5 V15 22 24"/>
    <busStop id="-8220384275" name="Gal·la Placídia" lane="-540501371#0_0" startPos="30.67" endPos="45.67" friendlyPos="true" lines="N24 V17 22 24"/>
    <busStop id="-8235367889" name="Av Madrid - Joan Güell" lane="-239293914#6_0" startPos="22.98" endPos="37.98" friendlyPos="true" lines="N3 54"/>
    <busStop id="-8264714830" name="Av Madrid - Benavent" lane="-239195662#3_0" startPos="10.36" endPos="25.36" friendlyPos="true" lines="N3 54">
        <access lane="239195662#0_0" pos="24.38" length="16.80" friendlyPos="1"/>
        <access lane="239195662#4_0" pos="0.00" length="46.72" friendlyPos="1"/>
        <access lane="45185741#0_0" pos="133.96" length="46.46" friendlyPos="1"/>
        <access lane="899101727_0" pos="0.00" length="52.58" friendlyPos="1"/>
        <access lane="913677489#0_0" pos="137.31" length="36.57" friendlyPos="1"/>
    </busStop>
    <busStop id="-8264714831" name="Av Madrid - Carles III" lane="-1408563669#2_0" startPos="16.81" endPos="31.81" friendlyPos="true" lines="N3 54">
        <access lane="-251749486#2_0" pos="55.01" length="58.05" friendlyPos="1"/>
        <access lane="1408563667#0_0" pos="43.37" length="56.67" friendlyPos="1"/>
        <access lane="1408563669#0_0" pos="20.18" length="16.80" friendlyPos="1"/>
        <access lane="45185753#0_0" pos="0.00" length="54.55" friendlyPos="1"/>
        <access lane="8087441#0_0" pos="0.00" length="50.69" friendlyPos="1"/>
    </busStop>
    <busStop id="-8286796472" name="Via Augusta - Alt Gironella" lane="-902154885_0" startPos="42.38" endPos="57.38" friendlyPos="true" lines="68 N7"/>
    <busStop id="-8286796473" name="Via Augusta - Pl Orient" lane="-308378768#2_0" startPos="29.13" endPos="44.13" friendlyPos="true" lines="68"/>
    <busStop id="-8311005617" name="Tarragona - Parc de Joan Miró" lane="-542990488#3_0" startPos="43.91" endPos="58.91" friendlyPos="true" lines="109">
        <access lane="243598398#1_0" pos="0.00" length="52.24" friendlyPos="1"/>
        <access lane="540074144_0" pos="31.45" length="38.06" friendlyPos="1"/>
        <access lane="540074145_0" pos="29.73" length="60.90" friendlyPos="1"/>
        <access lane="540074147#0_0" pos="53.88" length="13.85" friendlyPos="1"/>
        <access lane="905524542#0_0" pos="50.57" length="11.97" friendlyPos="1"/>
    </busStop>
    <busStop id="-8348774773" name="Pl Artós" lane="-554896192#1_0" startPos="38.74" endPos="53.74" friendlyPos="true" lines="130"/>
    <busStop id="-8348872890" name="Sta Amèlia - Or" lane="-198184601#1_0" startPos="4.26" endPos="19.26" friendlyPos="true" lines="130"/>
    <busStop id="-8348872891" name="Sta Amèlia - Eduard Conde" lane="-198184601#4_0" startPos="10.34" endPos="25.34" friendlyPos="true" lines="130"/>
    <busStop id="-8394412765" name="Av. Diagonal - Pl. Francesc Macià" lane="-544243185#2_0" startPos="28.07" endPos="43.07" friendlyPos="true" lines="N12"/>
    <busStop id="-9293679784" name="Av Joan XXIII - Maternitat" lane="-1077472976#2_0" startPos="104.67" endPos="119.67" friendlyPos="true" lines="113">
        <access lane="-94003982_0" pos="44.62" length="62.70" friendlyPos="1"/>
        <access lane="1007381333#1_0" pos="0.00" length="66.38" friendlyPos="1"/>
        <access lane="216957014_0" pos="29.76" length="94.64" friendlyPos="1"/>
        <access lane="72774735#1_0" pos="51.16" length="51.13" friendlyPos="1"/>
        <access lane="94003982_0" pos="0.00" length="57.99" friendlyPos="1"/>
    </busStop>
    <busStop id="10122785948" name="Pl Catalunya - Andana Central" lane="560770197#0_0" startPos="77.21" endPos="92.21" friendlyPos="true" lines="A1">
        <access lane="-1423927990_0" pos="116.41" length="6.84" friendlyPos="1"/>
        <access lane="-903071382_0" pos="36.46" length="11.64" friendlyPos="1"/>
        <access lane="20045755#0_0" pos="91.39" length="26.75" friendlyPos="1"/>
        <access lane="550627634_0" pos="0.00" length="41.07" friendlyPos="1"/>
        <access lane="908375894_0" pos="0.00" length="62.95" friendlyPos="1"/>
    </busStop>
    <busStop id="10278228679" name="Vico - Ronda General Mitre" lane="136415934#1_0" startPos="10.82" endPos="25.82" friendlyPos="true" lines="V11"/>
    <busStop id="10278243426" name="Freixa - Vallmajor" lane="54678281#1_0" startPos="71.65" endPos="86.65" friendlyPos="true" lines="V11"/>
    <busStop id="10832069131" name="Gran Via de les Corts Catalanes - Pg. de Gràcia" lane="18522669#0_0" startPos="117.16" endPos="132.16" friendlyPos="true" lines="805 804 806"/>
    <busStop id="10836696130" name="Tarragona - Pl. Espanya" lane="208686370_0" startPos="55.56" endPos="70.56" friendlyPos="true" lines="D40 109 L94">
        <access lane="-43948898#3_0" pos="36.28" length="62.41" friendlyPos="1"/>
        <access lane="1223097694_0" pos="0.00" length="66.66" friendlyPos="1"/>
        <access lane="208708601_0" pos="0.00" length="84.37" friendlyPos="1"/>
        <access lane="542836620_0" pos="32.61" length="22.84" friendlyPos="1"/>
        <access lane="853255412#6_0" pos="64.75" length="57.65" friendlyPos="1"/>
    </busStop>
    <busStop id="11158611551" name="Barcelona - c. Aragó" lane="579981381#0_0" startPos="96.18" endPos="111.18" friendlyPos="true" lines="LN 102 Olot - Amer - Barcelona">
        <access lane="-525638420#2_0" pos="0.00" length="80.18" friendlyPos="1"/>
        <access lane="555777774_0" pos="7.93" length="48.04" friendlyPos="1"/>
        <access lane="866377994_0" pos="0.00" length="74.51" friendlyPos="1"/>
        <access lane="908375881#0_0" pos="0.00" length="69.86" friendlyPos="1"/>
        <access lane="908375884#0_0" pos="117.19" length="71.04" friendlyPos="1"/>
    </busStop>
    <busStop id="11581804355" name="Barcelona - av. Gran Via" lane="483469232#0_0" startPos="67.35" endPos="82.35" friendlyPos="true" lines="LN 102 Barcelona - Amer - Olot"/>
    <busStop id="11987558717" name="La Rambla - Pl Catalunya" lane="251733667#0_0" startPos="0.00" endPos="15.00" friendlyPos="true" lines="59"/>
    <busStop id="11987558721" name="La Rambla - Pl del Teatre" lane="1221715066#1_0" startPos="30.57" endPos="45.57" friendlyPos="true" lines="59"/>
    <busStop id="12013170557" name="Rda. St. Pere 21-23" lane="511211614#0_0" startPos="67.75" endPos="82.75" friendlyPos="true" lines="808 L1561 618"/>
    <busStop id="12075128991" name="Gran Via - Balmes" lane="483469233#0_0" startPos="66.00" endPos="81.00" friendlyPos="true" lines="e22"/>
    <busStop id="12105890505" name="Estació de Sants - Pl Joan Peiró" lane="1307265857_0" startPos="31.70" endPos="46.70" friendlyPos="true" lines="27"/>
    <busStop id="12106306191" name="Tarragona - Mallorca" lane="1307212579#0_0" startPos="21.91" endPos="36.91" friendlyPos="true" lines="L94">
        <access lane="1307212578_0" pos="0.00" length="54.43" friendlyPos="1"/>
        <access lane="1395752172#0_0" pos="0.00" length="60.95" friendlyPos="1"/>
        <access lane="208708605#0_0" pos="52.57" length="11.37" friendlyPos="1"/>
        <access lane="42495435#0_0" pos="0.00" length="54.14" friendlyPos="1"/>
        <access lane="540074155#0_0" pos="0.00" length="58.79" friendlyPos="1"/>
    </busStop>
    <busStop id="12106325521" name="Pg Sant Antoni - Parc de l&apos;Espanya Industrial" lane="1239683617_0" startPos="109.34" endPos="124.34" friendlyPos="true" lines="N23 27 115 H10 78 CJ L94"/>
    <busStop id="12109091226" name="Tarragona - Pl Espanya" lane="542836620_0" startPos="47.45" endPos="62.45" friendlyPos="true" lines="D40"/>
    <busStop id="12110026076" name="Estació de Sants" lane="556602236_0" startPos="87.95" endPos="102.95" friendlyPos="true" lines="100">
        <access lane="180717280#1_0" pos="0.00" length="46.36" friendlyPos="1"/>
        <access lane="180717283#0_0" pos="14.18" length="24.00" friendlyPos="1"/>
        <access lane="180717284#0_0" pos="0.31" length="20.43" friendlyPos="1"/>
        <access lane="23425565_0" pos="27.87" length="27.59" friendlyPos="1"/>
        <access lane="42884388#2_0" pos="62.19" length="45.70" friendlyPos="1"/>
    </busStop>
    <busStop id="12286198838" name="Gran Via de les Corts Catalanes - Nàpols" lane="237521115#0_0" startPos="38.93" endPos="53.93" friendlyPos="true" lines="618 808">
        <access lane="1084045295#0_0" pos="0.00" length="85.01" friendlyPos="1"/>
        <access lane="1243745477#0_0" pos="46.10" length="32.52" friendlyPos="1"/>
        <access lane="1243745478_0" pos="0.20" length="78.94" friendlyPos="1"/>
        <access lane="545747645#0_0" pos="73.20" length="29.51" friendlyPos="1"/>
        <access lane="549749264#1_0" pos="45.87" length="85.65" friendlyPos="1"/>
    </busStop>
    <busStop id="12296180058" name="Pl Catalunya - Fontanella" lane="560770197#0_0" startPos="30.52" endPos="45.52" friendlyPos="true" lines="A2">
        <access lane="-1423927990_0" pos="120.48" length="77.11" friendlyPos="1"/>
        <access lane="-903071382_0" pos="32.39" length="81.91" friendlyPos="1"/>
        <access lane="140001504#0_0" pos="0.00" length="84.63" friendlyPos="1"/>
        <access lane="20045755#0_0" pos="45.43" length="26.45" friendlyPos="1"/>
        <access lane="545937949#0_0" pos="38.14" length="87.24" friendlyPos="1"/>
    </busStop>
    <busStop id="12296180059" name="Sepúlveda-Comte d&apos;Urgell, 123" lane="243591204#4_0" startPos="31.04" endPos="46.04" friendlyPos="true" lines="A2 A1"/>
    <busStop id="12301193263" lane="23191709#0_0" startPos="0.00" endPos="15.00" friendlyPos="true" lines="e11.1"/>
    <busStop id="12323293314" name="Diagonal - Estació Verdaguer" lane="307933389#0_0" startPos="85.92" endPos="100.92" friendlyPos="true" lines="34 6 33">
        <access lane="1097230875#0_0" pos="93.40" length="22.35" friendlyPos="1"/>
        <access lane="1112883654_0" pos="77.09" length="60.74" friendlyPos="1"/>
        <access lane="1218657923_0" pos="4.50" length="51.52" friendlyPos="1"/>
        <access lane="251749480#0_0" pos="22.18" length="37.95" friendlyPos="1"/>
        <access lane="293858820#0_0" pos="90.10" length="50.71" friendlyPos="1"/>
    </busStop>
    <busStop id="12351408134" name="Ronda Sant Antoni - Compte d&apos;Urgell" lane="1335077463#0_0" startPos="95.74" endPos="110.74" friendlyPos="true" lines="141 H16 N6 V11 55 120"/>
    <busStop id="12523087147" name="Gran Via Corts Catalanes - Roger de Flor" lane="545747645#0_0" startPos="74.73" endPos="89.73" friendlyPos="true" lines="808 804 806"/>
    <busStop id="12625340222" name="Av. Sarrià - Buenos Aires" lane="450145189_0" startPos="38.55" endPos="53.55" friendlyPos="true" lines="141"/>
    <busStop id="12650684969" name="Diagonal-Bruc" lane="1264903890#0_0" startPos="38.01" endPos="53.01" friendlyPos="true" lines="33 6 34"/>
    <busStop id="12694287057" name="Eixample" lane="134565969#4_0" startPos="41.46" endPos="56.46" friendlyPos="true" lines="100"/>
    <busStop id="12701996671" name="Plaça de Catalunya" lane="20045755#0_0" startPos="29.23" endPos="44.23" friendlyPos="true" lines="101"/>
    <busStop id="12811758776" name="Gra de Gràcia, 160" lane="831255362_0" startPos="0.00" endPos="13.46" friendlyPos="true" lines="N24"/>
    <busStop id="12864210815" name="Pl. Josep Maria Folch" lane="601740758_0" startPos="6.81" endPos="21.81" friendlyPos="true" lines="N4 N6 V11 121"/>
    <busStop id="12864216348" name="Ronda Sant Pau - Aldana" lane="237649292#0_0" startPos="0.00" endPos="15.00" friendlyPos="true" lines="X3"/>
    <busStop id="12966750072" name="Via Laietana - Comtal" lane="1411211750#2_0" startPos="68.05" endPos="83.05" friendlyPos="true" lines="N24 N8 N28 47">
        <access lane="1206380998_0" pos="0.00" length="28.70" friendlyPos="1"/>
        <access lane="1206386429#0_0" pos="173.65" length="9.09" friendlyPos="1"/>
        <access lane="131856080#0_0" pos="0.00" length="70.55" friendlyPos="1"/>
        <access lane="208007495_0" pos="0.00" length="74.82" friendlyPos="1"/>
        <access lane="550150106_0" pos="7.32" length="44.95" friendlyPos="1"/>
    </busStop>
    <busStop id="12988019848" name="Via Laietana - Pl. Ramon Berenguer" lane="1413338062#1_0" startPos="33.14" endPos="48.14" friendlyPos="true" lines="N24 N8 N28 47">
        <access lane="-1226041828_0" pos="0.23" length="70.07" friendlyPos="1"/>
        <access lane="-20352712#0_0" pos="0.00" length="70.62" friendlyPos="1"/>
        <access lane="1223432482_0" pos="53.67" length="8.58" friendlyPos="1"/>
        <access lane="1226041828_0" pos="5.31" length="64.42" friendlyPos="1"/>
        <access lane="20352712#0_0" pos="2.17" length="65.84" friendlyPos="1"/>
    </busStop>
    <busStop id="12988396197" name="Valldonzella - Joaquim Costa" lane="12372966#1_0" startPos="0.00" endPos="15.00" friendlyPos="true" lines="120"/>
    <busStop id="13052222749" name="Pg. Manuel Girona - Benet Mateu" lane="237695643#0_0" startPos="94.41" endPos="109.41" friendlyPos="true" lines="6"/>
    <busStop id="13052284751" name="Capità Arenas - Francesc Carbonell" lane="554907245#0_0" startPos="42.98" endPos="57.98" friendlyPos="true" lines="34"/>
    <busStop id="13061353133" name="Pg de Sant Joan - Còrsega" lane="1409296676#0_0" startPos="0.00" endPos="15.00" friendlyPos="true" lines="N4 H8 47"/>
    <busStop id="13069136932" name="Madrazo 104" lane="1422093909#0_0" startPos="63.31" endPos="78.31" friendlyPos="true" lines="V13"/>
    <busStop id="1377816289" name="Carles III - Mejía Lequerica" lane="550280511#0_0" startPos="31.23" endPos="46.23" friendlyPos="true" lines="175 V3 V5 59 70"/>
    <busStop id="1386880778" name="Pl Catalunya - Fontanella" lane="560770197#0_0" startPos="29.28" endPos="44.28" friendlyPos="true" lines="A2">
        <access lane="-1423927990_0" pos="125.36" length="77.95" friendlyPos="1"/>
        <access lane="-903071382_0" pos="30.92" length="83.24" friendlyPos="1"/>
        <access lane="140001504#0_0" pos="0.00" length="81.04" friendlyPos="1"/>
        <access lane="20045755#0_0" pos="44.22" length="13.61" friendlyPos="1"/>
        <access lane="545937949#0_0" pos="38.14" length="88.44" friendlyPos="1"/>
    </busStop>
    <busStop id="1426089985" name="Av. Diagonal - Gran Via Carles III" lane="34054311#3_0" startPos="113.99" endPos="128.99" friendlyPos="true" lines="L64 e24 Bus: Guimerà =&gt; Barcelona e22 M14 e5 e6 L1050a e17 e20 L68"/>
    <busStop id="1474608404" name="Pl Universitat" lane="328020781#0_0" startPos="76.44" endPos="91.44" friendlyPos="true" lines="X95 N20 N23 X1 H12 N1 N3 N12 N13 N15 N16 N17 N18 V13 54 59 L95 A2 A1 e14 e15.1 e16"/>
    <busStop id="1478113760" name="Diagonal - Av Joan XXIII" lane="542503071#0_0" startPos="38.40" endPos="53.40" friendlyPos="true" lines="175 7 33 67 N12 V5 63 78 M14 e15.2"/>
    <busStop id="1479334948" name="Av Roma - Tarragona" lane="87031380_0" startPos="43.86" endPos="58.86" friendlyPos="true" lines="N23 V7 27 115 H10 D40 78 109 CJ"/>
    <busStop id="1662624568" name="Mallorca - Balmes" lane="1083818630#0_0" startPos="77.04" endPos="92.04" friendlyPos="true" lines="H10"/>
    <busStop id="1662624587" name="Valencia - Pg de Gràcia" lane="238324880#2_0" startPos="0.44" endPos="15.44" friendlyPos="true" lines="H10"/>
    <busStop id="1856466663" name="Av. Diagonal - Pl. Reina Maria Cristina" lane="237695645_0" startPos="16.36" endPos="31.36" friendlyPos="true" lines="M12"/>
    <busStop id="1962300126" name="Mallorca - Girona" lane="116315045#0_0" startPos="47.76" endPos="62.76" friendlyPos="true" lines="H10 N9 B24"/>
    <busStop id="1966472090" name="Ronda Universitat - Plaça Catalunya" lane="20475367_0" startPos="125.75" endPos="140.75" friendlyPos="true" lines="N41 e11.1 e11.2 C6"/>
    <busStop id="2033098461" name="Via Augusta - Ronda General Mitre" lane="308378773_0" startPos="45.29" endPos="60.29" friendlyPos="true" lines="68 V9"/>
    <busStop id="216349848" name="Pl. Catalunya - Portal de l&apos;Àngel" lane="20355312_0" startPos="60.60" endPos="75.60" friendlyPos="true" lines="N4 N24 H16 N12 N15 V15 59"/>
    <busStop id="2189785050" name="Metro Tarragona" lane="540083909#0_0" startPos="49.46" endPos="64.46" friendlyPos="true" lines="V7 D40 109 CJ L94">
        <access lane="549448472_0" pos="0.00" length="63.10" friendlyPos="1"/>
        <access lane="549448477_0" pos="10.37" length="67.20" friendlyPos="1"/>
        <access lane="60344581#0_0" pos="0.00" length="83.40" friendlyPos="1"/>
        <access lane="853255411#0_0" pos="44.43" length="12.15" friendlyPos="1"/>
        <access lane="905524538#0_0" pos="52.14" length="14.43" friendlyPos="1"/>
    </busStop>
    <busStop id="2195909110" name="Via Augusta - Margenat" lane="871757026#0_0" startPos="0.00" endPos="15.00" friendlyPos="true" lines="130"/>
    <busStop id="2195921305" name="Via Augusta - Pau Alcover" lane="1395147160#0_0" startPos="21.31" endPos="36.31" friendlyPos="true" lines="68"/>