<?xml version="1.0" encoding="UTF-8"?>

<!-- generated on 2025-08-24 08:42:09.972000 by osmWebWizard.py v1_24_0+0000-b72eb3fabc8
<configuration>
    <net-file value="C:\Users\marce\Sumo\2025-08-24-08-41-09\osm.net.xml.gz"/>
    <ptlines-file value="C:\Users\marce\Sumo\2025-08-24-08-41-09\osm_ptlines.xml"/>
    <ptstops-file value="C:\Users\marce\Sumo\2025-08-24-08-41-09\osm_stops.add.xml"/>
    <output-file value="C:\Users\marce\Sumo\2025-08-24-08-41-09\osm_pt.rou.xml"/>
    <stopinfos-file value="C:\Users\marce\Sumo\2025-08-24-08-41-09\stopinfos.xml"/>
    <routes-file value="C:\Users\marce\Sumo\2025-08-24-08-41-09\vehroutes.xml"/>
    <trips-file value="C:\Users\marce\Sumo\2025-08-24-08-41-09\trips.trips.xml"/>
    <min-stops value="0"/>
    <extend-to-fringe value="True"/>
    <random-begin value="True"/>
    <seed value="42"/>
    <ignore-errors value="True"/>
    <vtype-prefix value="pt_"/>
    <verbose value="True"/>
</configuration>
-->

<routes xmlns:xsi="http://www.w3.org/2001/XMLSchema-instance" xsi:noNamespaceSchemaLocation="http://sumo.dlr.de/xsd/routes_file.xsd">
    <vType id="pt_bus" vClass="bus"/>
    <vType id="pt_tram" vClass="tram"/>
    <vType id="pt_train" vClass="rail"/>
    <vType id="pt_subway" vClass="subway"/>
    <vType id="pt_light_rail" vClass="rail_urban"/>
    <vType id="pt_monorail" vClass="rail_urban"/>
    <vType id="pt_trolleybus" vClass="bus"/>
    <vType id="pt_minibus" vClass="bus"/>
    <vType id="pt_share_taxi" vClass="taxi"/>
    <vType id="pt_aerialway" vClass="cable_car" length="2.5" width="2" personCapacity="4"/>
    <vType id="pt_ferry" vClass="ship"/>
    <route id="pt_bus_100:0" color="201,66,63" edges="126304603#0 905380775 537787889#1 -893745919#2 -1235276476 -962829744 -1235264093#2 8380873#0 1392183135#0 140001530#0 440369835#0 304693491#0 116343003#0 -908375889#1 -908375883#3 -293858828#3 908375880 1408524849#0 1408525897#0 1408525897#3 1408525899#0 1408526882 1408526881#0 294085157#0 294085157#2 1408526883 450137745#0 136725370#0 136725370#3 136725370#4 1112886298#1 1369695508#0 1112886296#0 295124091#0 295124091#4 1408548654#0 1162460369#0 1409614860#0 532436408#0 1409614866#0 134565969#0 134565969#4 247548699#0 237659847 -315269000#4 42520943#0 1420262304#0 1420262304#1 43706699 556602236 129216269#0 652024042#0 243598403 1307212580 1239683617 294021549 1307209203 309246597 208708605#0 1395752172#0 853255411#0 1395746249 905524540 905524542#0 243598398#1 542836620" >
        <stop busStop="823781719" duration="20" until="42.0"/> <!-- Plaça Catalunya -->
        <stop busStop="-12694287056" duration="20" until="278.0"/> <!-- Casa Batlló - Museu Tàpies -->
        <stop busStop="12694287057" duration="20" until="670.0"/> <!-- Eixample -->
        <stop busStop="12110026076" duration="20" until="866.0"/> <!-- Estació de Sants -->
    </route>
    <route id="pt_bus_101:0" color="48,95,146" edges="20045755#0 -295263587 -549518619 8380830#0 440369835#0 304693491#0 116343003#0 -908375889#1 -908375883#3 -293858828#3 -525638420#2 -524963566#6 -524963566#3 -294085186#4 -908375867#2 908375868 450396236#0 68506257#0 308861416#0 308861419#0 4746924#0 237910181#0 237910181#5 544248640#0 544248640#2 284450142#0 1370823685#0 1370823684" >
        <stop busStop="12701996671" duration="20" until="40.0"/> <!-- Plaça de Catalunya -->
        <stop busStop="-12694287056" duration="20" until="238.0"/> <!-- Casa Batlló - Museu Tàpies -->
        <stop busStop="-5375631705" duration="20" until="348.0"/> <!-- Passeig de Gràcia - La Pedrera -->
    </route>
    <route id="pt_bus_109:0" color="208,46,38" edges="552422735#1 552422734#0 1225776662#0 1369698946#0 1409641106 1225776663#0 1409641108 237645175#0 1225777280 1225777278 1409641111 905546719#0 1225985838#0 450610283#0 232589228#5 237659846#0 87031379#3 247548699#0 237659847 -1307212579#3 -905524536#2 -1395746246#2 -1395752171#1 -315272795#2 -1245668409#1 -542990488#3 -1395752170#1 -208708601 542836620" >
        <stop busStop="8311005618" duration="20" until="48.0"/> <!-- Provença - Villarroel -->
        <stop busStop="2510905936" duration="20" until="111.0"/> <!-- Mallorca - Comte d'Urgell -->
        <stop busStop="8193791324" duration="20" until="195.0"/> <!-- Mallorca - Viladomat -->
        <stop busStop="-12106306191" duration="20" until="370.0"/> <!-- Tarragona - Mallorca -->
        <stop busStop="-7757144476" duration="20" until="446.0"/> <!-- Metro Tarragona -->
        <stop busStop="-5099400282" duration="20" until="532.0"/> <!-- Tarragona-Parc de Joan Miró -->
        <stop busStop="-8311005617" duration="20" until="564.0"/> <!-- Tarragona - Parc de Joan Miró -->
    </route>
    <route id="pt_bus_109:1" color="208,46,38" edges="208686370 208708601 1395752170#0 542990488#0 245123969#0 540083909#0 1395752171#0 1395746246#0 905524536#0 1307212579#0 87031380 129169445#0 237805212 1112886305#0 1409614862#0 1112886303#0 237805210#0 237805210#6 237805210#8 918393595 450423878#0 1354683580#0 262048904#0 238324883#0 526213090#0 238324872#0 552422735#1" >
        <stop busStop="10836696130" duration="20" until="44.0"/> <!-- Tarragona - Pl. Espanya -->
        <stop busStop="2189785050" duration="20" until="149.0"/> <!-- Metro Tarragona -->
        <stop busStop="1479334948" duration="20" until="264.0"/> <!-- Av Roma - Tarragona -->
        <stop busStop="2510905952" duration="20" until="350.0"/> <!-- València - Entença -->
        <stop busStop="8193682977" duration="20" until="431.0"/> <!-- València - Viladomat -->
        <stop busStop="30243320" duration="20" until="545.0"/> <!-- València - Comte d'Urgell -->
        <stop busStop="8311005618" duration="20" until="643.0"/> <!-- Provença - Villarroel -->
    </route>
    <route id="pt_bus_113:0" color="208,46,38" edges="33283925#0 33283925#3 -1077472976#6 -1077472976#4 -1077472976#3 -1077472976#2 1007381333#1 554934624 552634545#0 552634545#1 213888086#0 213888086#2 451642041#0 451642041#1 1391886576#0 542503077 542503076#0 542503076#4" >
        <stop busStop="-9293679784" duration="20" until="62.0"/> <!-- Av Joan XXIII - Maternitat -->
        <stop busStop="7757092555" duration="20" until="131.0"/> <!-- Av Joan XXIII - Pl Pius XII -->
        <stop busStop="7757019551" duration="20" until="369.0"/> <!-- Pl. Pius XII - Av. Pedralbes -->
    </route>
    <route id="pt_bus_113:1" color="208,46,38" edges="542503076#4 58717691#0 -68506232#2 -1391886571 -1391886570 -543400543#1 -396947540#1" >
        <stop busStop="7757019551" duration="20" until="40.0"/> <!-- Pl. Pius XII - Av. Pedralbes -->
    </route>
    <route id="pt_bus_114:0" color="208,46,38" edges="555536624 555536622#0 301780477#1 288460988 268565418 555542136#1 296827083#0 8590864#0 8590864#2 10070630 1360091615 122475982#0 122475982#1 237659862#0 237659862#2 831182049#0 831182050#0 1264838293 1264825146 1264825147#0 1264825147#1 1264825148#0 1264825148#1 1264825149#0 831182051#0 831182051#2 1218655147 1218655148#1 237725945#0 4747009 1409297989#0 544113526#0 307933382#0 1391901673 308861419#0 4746924#0 237910181#0 237910181#5 544248640#0 544248640#2 284450142#0 226319968#0 226319971" >
        <stop busStop="7760901425" duration="20" until="31.0"/> <!-- Trav de Gràcia - Pl Gal·la Placídia -->
        <stop busStop="7760901426" duration="20" until="255.0"/> <!-- Trav de Gràcia - Mariana Pineda -->
        <stop busStop="8259972652" duration="20" until="331.0"/> <!-- Torrent de l'Olla - Penedès -->
        <stop busStop="8259972651" duration="20" until="414.0"/> <!-- Torrent de l'Olla - Còrsega -->
        <stop busStop="5603006508" duration="20" until="634.0"/> <!-- Rosselló - Bruc -->
        <stop busStop="5261112621" duration="20" until="702.0"/> <!-- Rosselló - Bailèn -->
        <stop busStop="5603006483" duration="20" until="785.0"/> <!-- Pg de Sant Joan - Còrsega -->
    </route>
    <route id="pt_bus_114:1" color="208,46,38" edges="8590860 831255357 831255358 1264825135 831255360#0 296827083#0 831255361#0 831255362" >
        <stop busStop="7761529491" duration="20" until="31.0"/> <!-- Ros de Olano - Torrent de l'Olla -->
        <stop busStop="7761529492" duration="20" until="98.0"/> <!-- Ros de Olano - Gran de Gràcia -->
        <stop busStop="7761529493" duration="20" until="155.0"/> <!-- Gran de Gràcia - Metro Fontana -->
    </route>
    <route id="pt_bus_115:0" color="208,46,38" edges="831157580#0 497952257 831157582#0 831157582#4 243598403 1307212580 1239683617 294021549 1307209203 309246597 87031380 237659847 -315269000#4 42520943#0 1420262305 557065981#0 557065981#3 30761362" >
        <stop busStop="7760665318" duration="20" until="34.0"/> <!-- Pl. Sants -->
        <stop busStop="12106325521" duration="20" until="138.0"/> <!-- Pg Sant Antoni - Parc de l'Espanya Industrial -->
        <stop busStop="1479334948" duration="20" until="225.0"/> <!-- Av Roma - Tarragona -->
        <stop busStop="2508645431" duration="20" until="386.0"/> <!-- Enric Bargés - Numància -->
    </route>
    <route id="pt_bus_115:1" color="208,46,38" edges="30761362 831157551#1 243598397#0 42520943#0 1420262305 557065981#0 557065981#3 30761362 831157551#1 243598397#0 315269000#0 -1307212579#3 -905524536#2 -1395746246#2 -1395752171#1 -315272795#2 -1245668409#1 -542990488#3 -1395752170#1 -208708601 1223097694 43948898#4 -43948898#4 -43948898#3 208708601 1395752170#0 542990488#0 245123969#0 540083909#0 1395752171#0 1395746246#0 905524536#0 1307212578 42495435#0 4813518#0 4813518#1 4813518#2 4813518#3 905524541#3 905524541#5 905524541#7" >
        <stop busStop="2508645431" duration="20" until="45.0"/> <!-- Enric Bargés - Numància -->
        <stop busStop="2198032016" duration="20" until="111.0"/> <!-- Numància - Av. Roma -->
        <stop busStop="7757144475" duration="20" until="246.0"/> <!-- Numància - Av Roma -->
        <stop busStop="-12106306191" duration="20" until="399.0"/> <!-- Tarragona - Mallorca -->
        <stop busStop="-7757144476" duration="20" until="475.0"/> <!-- Metro Tarragona -->
        <stop busStop="2509846198" duration="20" until="782.0"/> <!-- Consell de Cent - Rector Triadó -->
    </route>
    <route id="pt_bus_120:0" color="208,46,38" edges="238326399#0 868707435#0 237529476#0 237529476#2 237529476#3 403600282#0 591631503#0 591631503#3 591631645#0 591631645#1 237655875#0 1335081722#0 241618932#0 241618932#3 241618932#4 241618932#5 241618932#6 241618932#7 241618932#8 -10428122 553234918 10851731 553234917#0 553234917#1 10851867#0 10851867#1 10851867#2 919076823 553234916 610191184 11297310#0 11297310#1 11297310#2 1122460245 295215796#0 246638753" >
        <stop busStop="9909730844" duration="20" until="57.0"/> <!-- Manso - Calàbria -->
        <stop busStop="8228181025" duration="20" until="144.0"/> <!-- Calàbria - Av Mistral -->
        <stop busStop="8205826548" duration="20" until="201.0"/> <!-- Floridablanca - Viladomat -->
        <stop busStop="5603006495" duration="20" until="292.0"/> <!-- Floridablanca - Comte d'Urgell -->
        <stop busStop="8328305438" duration="20" until="381.0"/> <!-- Riera Alta - Nou de Dulce -->
        <stop busStop="8328305437" duration="20" until="507.0"/> <!-- Riera Alta - Erasme de Janer -->
        <stop busStop="8328305436" duration="20" until="619.0"/> <!-- Rambla del Raval - Aurora -->
        <stop busStop="8328305435" duration="20" until="686.0"/> <!-- Rambla del Raval - Sant Pau -->
        <stop busStop="8328305434" duration="20" until="786.0"/> <!-- Av Drassanes - Arc del Teatre -->
        <stop busStop="8328305433" duration="20" until="923.0"/> <!-- Av Drassanes - Pl Portal de la Pau -->
    </route>
    <route id="pt_bus_120:1" color="208,46,38" edges="1228418637 1408620377#0 217108056#0 1122460243 239662764#0 459667610#0 459667610#1 919076824 -10851867#2 -10851867#1 -10851867#0 246630085 10851770#0 10851770#1 10851770#2 246630088 10428122 246630090#0 246630090#1 246630090#2 246630090#3 11301537#0 11301537#1 11301537#2 11301537#3 18833661#0 18833661#1 12372966#0 12372966#1 886800835#0 525588035#0 525588035#5 918410082#0 12373020#0 12373020#3 12373020#5 243591201#0 237655875#0 1335081722#0 1335077463#0 -1335077459 4745021#0 237529472#0 238326399#0" >
        <stop busStop="8328305423" duration="20" until="92.0"/> <!-- Metro Drassanes -->
        <stop busStop="8328305422" duration="20" until="195.0"/> <!-- Av Drassanes - Nou de la Rambla -->
        <stop busStop="8328305421" duration="20" until="285.0"/> <!-- Rambla del Raval - Sant Josep Oriol -->
        <stop busStop="8328305420" duration="20" until="345.0"/> <!-- Rambla del Raval - Hospital -->
        <stop busStop="8328305419" duration="20" until="507.0"/> <!-- Pl Joan Amades -->
        <stop busStop="8328305418" duration="20" until="565.0"/> <!-- Pl dels Àngels -->
        <stop busStop="8328305417" duration="20" until="626.0"/> <!-- Montalegre - Valdonzella -->
        <stop busStop="12988396197" duration="20" until="696.0"/> <!-- Valldonzella - Joaquim Costa -->
        <stop busStop="5609793222" duration="20" until="803.0"/> <!-- Sepúlveda - Muntaner -->
        <stop busStop="8097436670" duration="20" until="877.0"/> <!-- Villarroel - Sepúlveda -->
        <stop busStop="12351408134" duration="20" until="950.0"/> <!-- Ronda Sant Antoni - Compte d'Urgell -->
        <stop busStop="9909730844" duration="20" until="1051.0"/> <!-- Manso - Calàbria -->
    </route>
    <route id="pt_bus_121:0" color="208,46,38" edges="237529472#0 238326399#0 340350446#0" >
        <stop busStop="2536484166" duration="20" until="46.0"/> <!-- Mercat de Sant Antoni -->
        <stop busStop="8205986396" duration="20" until="124.0"/> <!-- Manso - Rocafort -->
    </route>
    <route id="pt_bus_121:1" color="208,46,38" edges="237649291#0 237649291#1 237649292#0 601740758 237649293#0 1223827918#1 246638755 4745021#0 237529472#0" >
        <stop busStop="12864210815" duration="20" until="73.0"/> <!-- Pl. Josep Maria Folch -->
        <stop busStop="2536484166" duration="20" until="168.0"/> <!-- Mercat de Sant Antoni -->
    </route>
    <route id="pt_bus_130:0" color="208,46,38" edges="141702427#0 -554896192#1 32435179#2 32435179#3 922298083 35682487#0 35682487#1 35682487#2 4752053#0 4752053#1 237695641#0 237695634#1" >
        <stop busStop="8348774773" duration="20" until="39.0"/> <!-- Pl Artós -->
        <stop busStop="8348774772" duration="20" until="111.0"/> <!-- Bonaplata -->
        <stop busStop="8348774771" duration="20" until="189.0"/> <!-- Fontcoberta - Pedró de la Creu -->
        <stop busStop="841867104" duration="20" until="266.0"/> <!-- Av J V Foix - Mendel -->
    </route>
    <route id="pt_bus_130:1" color="208,46,38" edges="871757026#0 871757026#1 871757026#2 450200076#0 -238862118#4 -238862118#0 -955133750#2 -145033028#3 4750228#0 4750228#1 4750228#2 4750228#3 554907246 4752053#0 4752053#1 237695641#0 -32674101#6 -32674101#1 -1033980831 -1033980832#1 -918487975#3 918487974 269149015#0 -198184601#4 -198184601#1 198184601#1 -198184601#1 -198184601#0 34054310#0 34054310#1 554907244 237695636#0 237695636#1 904217123 -554896192#1" >
        <stop busStop="2195909110" duration="20" until="35.0"/> <!-- Via Augusta - Margenat -->
        <stop busStop="8348872893" duration="20" until="165.0"/> <!-- Clos de St Francesc - Pg Reina Elisenda de Montcada -->
        <stop busStop="8348872892" duration="20" until="251.0"/> <!-- Pedró de la Creu - Gresolet -->
        <stop busStop="-8180054861" duration="20" until="323.0"/> <!-- Av. J. V. Foix - Pedró de la Creu -->
        <stop busStop="-8348872891" duration="20" until="404.0"/> <!-- Sta Amèlia - Eduard Conde -->
        <stop busStop="-2745572516" duration="20" until="464.0"/> <!-- Santa Amèlia - Or -->
        <stop busStop="-8348872890" duration="20" until="520.0"/> <!-- Sta Amèlia - Or -->
        <stop busStop="8180054870" duration="20" until="624.0"/> <!-- Benet Mateu - Manuel de Falla -->
        <stop busStop="-8348774773" duration="20" until="688.0"/> <!-- Pl Artós -->
    </route>
    <route id="pt_bus_13:0" color="208,46,38" edges="238326399#0 868707435#0 237529476#0 237529476#2 237529476#3 237529475#0 237529479#0 237529479#5 237659850#0 532436407#0 244057616#0 449991631#0 552124695#0 237529479#5 1409614855#0 237923125#0" >
        <stop busStop="3107615730" duration="20" until="46.0"/> <!-- Manso - Viladomat -->
        <stop busStop="8228181025" duration="20" until="130.0"/> <!-- Calàbria - Av Mistral -->
        <stop busStop="4040253781" duration="20" until="241.0"/> <!-- Sepúlveda - Rocafort -->
        <stop busStop="8045155332" duration="20" until="387.0"/> <!-- None -->
        <stop busStop="2510578431" duration="20" until="460.0"/> <!-- Sepúlveda - Av. Mistral -->
    </route>
    <route id="pt_bus_13:1" color="208,46,38" edges="545715326 237923111#4 237795732#0 403600282#0 450610285#0 591637631#0 238326399#0" >
        <stop busStop="5275881874" duration="20" until="43.0"/> <!-- Floridablanca - Av Mistral -->
        <stop busStop="8205826548" duration="20" until="127.0"/> <!-- Floridablanca - Viladomat -->
        <stop busStop="3107615730" duration="20" until="226.0"/> <!-- Manso - Viladomat -->
        <stop edge="545715326" speed="999" jump="42.39942396935926" index="fit"/>
    </route>
    <route id="pt_bus_141:0" color="208,46,38" edges="450145189 4746244 237667612#0 237960944#0 243716770#0 243716770#4 237960949#0 237960949#4 237960949#7 552422734#0 552422733#0 1112404106#0 1112404106#2 1112404106#6 1112404106#9 1112404102#0 449991639#0 449991639#3 449991639#5 1227367185 879204520 905210700#0 237506930#0 243591201#0 237655875#0 1335081722#0 1335077463#0 -1335077459 4745021#0 237529472#0 238326399#0 868707435#0" >
        <stop busStop="12625340222" duration="20" until="42.0"/> <!-- Av. Sarrià - Buenos Aires -->
        <stop busStop="8097436675" duration="20" until="130.0"/> <!-- Villarroel - Buenos Aires -->
        <stop busStop="8097436674" duration="20" until="213.0"/> <!-- Villarroel - Hospital Clínic -->
        <stop busStop="2510905955" duration="20" until="296.0"/> <!-- Villarroel - Mercat del Ninot -->
        <stop busStop="8097436672" duration="20" until="376.0"/> <!-- Villarroel - Aragó -->
        <stop busStop="8097436671" duration="20" until="455.0"/> <!-- Villarroel - Gran Via -->
        <stop busStop="8097436670" duration="20" until="541.0"/> <!-- Villarroel - Sepúlveda -->
        <stop busStop="12351408134" duration="20" until="615.0"/> <!-- Ronda Sant Antoni - Compte d'Urgell -->
        <stop busStop="8097353538" duration="20" until="729.0"/> <!-- Calàbria - Manso -->
    </route>
    <route id="pt_bus_141:1" color="208,46,38" edges="868707435#0 237529476#0 237529476#2 237529476#3 237529475#0 449991620#0 449991620#4 918438451#0 918438451#2 918438451#6 1112400990#0 1408548655#0 1112400991#0 918438452#0 1409641110#1 1409641110#2 449991621#0 449991621#4 449991621#8 449991621#12 1408598861#0 1408598861#2 4744944#0 4744944#4 9412963#0 237667608#0 450145189" >
        <stop busStop="8097353538" duration="20" until="44.0"/> <!-- Calàbria - Manso -->
        <stop busStop="8097436669" duration="20" until="133.0"/> <!-- Calàbria - Floridablanca -->
        <stop busStop="8097436668" duration="20" until="225.0"/> <!-- Calàbria - Gran Via -->
        <stop busStop="2412575676" duration="20" until="327.0"/> <!-- Calàbria- Aragó -->
        <stop busStop="8097436667" duration="20" until="359.0"/> <!-- Calàbria - Aragó -->
        <stop busStop="8097436666" duration="20" until="472.0"/> <!-- Calàbria - Provença -->
        <stop busStop="2508645427" duration="20" until="505.0"/> <!-- Calàbria- Provença -->
        <stop busStop="8097436664" duration="20" until="607.0"/> <!-- París - Viladomat -->
        <stop busStop="12625340222" duration="20" until="738.0"/> <!-- Av. Sarrià - Buenos Aires -->
    </route>
    <route id="pt_bus_157:0" color="208,46,38" edges="899931799#1 906508061#0 1210868746#0 1258709160" >
        <stop busStop="8361317682" duration="20" until="36.0"/> <!-- Riera Blanca - Trav de Les Corts -->
        <stop busStop="5264616329" duration="20" until="120.0"/> <!-- Les Corts - Aurora Bertrana -->
    </route>
    <route id="pt_bus_157:1" color="208,46,38" edges="54060104#0 140181369#0 -1225026749 1225030918#0 899931799#1" >
        <stop busStop="8361317682" duration="20" until="66.0"/> <!-- Riera Blanca - Trav de Les Corts -->
    </route>
    <route id="pt_bus_175:0" color="208,46,38" edges="1225001919#0 1225001919#1 27646032#0 1225001918 1225026749 1225029477 4746693#1 395103328#0 1280717100#0 360064367#0 45185736#0 239195662#0 239195662#4 1408563668#0 1408563667#0 1408563669#0 251749486#0 840979187#0 450020876#0 43125905#0 902143607#0 902143607#1 1395710329 542495687#0 542495687#1 49581770#0 1395710333 1395710335#0 550280511#0 1395710341 288000443 34054323#0 34054323#1 309254651#0 664147081 662031115 -294056749#2 -543400542#2 -284616361#4 -253360734#4 -68506232#2 -1391886571 -1391886570 -543400543#1 -396947540#1" >
        <stop busStop="687897179" duration="20" until="35.0"/> <!-- Riera Blanca - Onze de Setembre -->
        <stop busStop="5259829879" duration="20" until="124.0"/> <!-- Av Madrid - Arizala -->
        <stop busStop="2509846199" duration="20" until="243.0"/> <!-- Gran Via Carles III - Av Madrid -->
        <stop busStop="8084922537" duration="20" until="303.0"/> <!-- Carles III - Les Corts -->
        <stop busStop="1377816289" duration="20" until="370.0"/> <!-- Carles III - Mejía Lequerica -->
        <stop busStop="-5341631255" duration="20" until="556.0"/> <!-- Diagonal - Pl Reina Maria Cristina -->
        <stop busStop="-5572252923" duration="20" until="641.0"/> <!-- Diagonal - Pl Pius XII -->
    </route>
    <route id="pt_bus_175:1" color="208,46,38" edges="170079056#0 170079056#1 542503071#0 34054311#0 34054311#3 175002097 550280508 34054324#0 34054324#1 34054324#2 1395710337 1395710336 902143605#0 288000444 367979558#0 544641225#0 237960954#2 237960954#5 906505543#0 7997310#0 1395771680#0 1243061721#0 165526880#0 544124179#0 867340082 1225001919#0" >
        <stop busStop="1478113760" duration="20" until="64.0"/> <!-- Diagonal - Av Joan XXIII -->
        <stop busStop="8048728590" duration="20" until="140.0"/> <!-- Carles III - Maria Cristina -->
        <stop busStop="8048728589" duration="20" until="208.0"/> <!-- Carles III - Mejía Lequerica -->
        <stop busStop="5264616256" duration="20" until="283.0"/> <!-- Les Corts - Mejía Lequerica -->
        <stop busStop="8048728588" duration="20" until="354.0"/> <!-- Estadi del Futbol Club Barcelona -->
        <stop busStop="687897179" duration="20" until="459.0"/> <!-- Riera Blanca - Onze de Setembre -->
    </route>
    <route id="pt_bus_19:0" color="208,46,38" edges="-549518619 8380830#0 44029116#0 44029116#4 483469231#0 579981379#0 20042722#0 20475905#0 20043469#0 237725943#0 546184105#0 546184105#3" >
        <stop busStop="-5760480311" duration="20" until="44.0"/> <!-- Pg. de Gràcia - Ronda de Sant Pere -->
        <stop busStop="6325900918" duration="20" until="215.0"/> <!-- Pl Urquinaona -->
        <stop busStop="6325900917" duration="20" until="294.0"/> <!-- Trafalgar - Bruc -->
    </route>
    <route id="pt_bus_19:1" color="208,46,38" edges="1409641091#0 620654185#0 1092589334#0 1083461288#0 4745526#0 248565671#0 314679881 552149490#0 116315093#0 571448021#0 932391853#0 1084045293#0 237517575#0 519375852 304693485 23191708#0 330913949#0" >
        <stop busStop="2573351864" duration="20" until="48.0"/> <!-- Mallorca, 367 -->
        <stop busStop="8143303455" duration="20" until="248.0"/> <!-- Pg de Sant Joan - Pl Mossèn Jacint Verdaguer -->
        <stop busStop="8143303454" duration="20" until="326.0"/> <!-- Pg Sant Joan - Consell de Cent -->
        <stop busStop="8143303453" duration="20" until="398.0"/> <!-- Pg de Sant Joan - Diputació -->
    </route>
    <route id="pt_bus_22:0" color="208,46,38" edges="519375847#0 295263592 -295263587 526129884 295263589#0 440369835#0 304693491#0 116343003#0 -908375889#1 -908375883#3 -293858828#3 -525638420#2 -524963566#6 -524963566#3 -294085186#4 -908375867#2 -116343001#2 1217655904 1252144027 522164021#0 115676121#0 546303758 1217637622#0 401951398#1 401951398#4 1360091614 32015691#0 32015691#5 32015691#6 831182046 831182045#0 555542136#0 555542136#1 296827083#0 831255361#0 831255362" >
        <stop busStop="8248379225" duration="20" until="48.0"/> <!-- Ronda Sant Pere - Pg de Gràcia -->
        <stop busStop="9788442646" duration="20" until="125.0"/> <!-- Pg de Gràcia - Casp -->
        <stop busStop="-5603006498" duration="20" until="265.0"/> <!-- Pg de Gràcia - Gran Via -->
        <stop busStop="-5603009321" duration="20" until="357.0"/> <!-- Pg de Gràcia - Aragó -->
        <stop busStop="-8214234942" duration="20" until="440.0"/> <!-- Pg de Gràcia - Mallorca -->
        <stop busStop="-8214234941" duration="20" until="524.0"/> <!-- Pg de Gràcia - Diagonal -->
        <stop busStop="8220384289" duration="20" until="842.0"/> <!-- Gran de Gràcia - Jesús -->
        <stop busStop="8220384288" duration="20" until="930.0"/> <!-- Gran de Gràcia - Trav de Gràcia -->
        <stop busStop="7761529493" duration="20" until="997.0"/> <!-- Gran de Gràcia - Metro Fontana -->
    </route>
    <route id="pt_bus_22:1" color="208,46,38" edges="-296827092#1 -287670535 -541703429 -32015709#1 132535598 902160362#0 816764554#0 1395142049 1110658875 -540281990#1 -570560366#2 -542843797#0 -540501371#0 1395142048#0 288454797#0 288454797#2 288454797#4 288454797#6 902160361#0 902160361#1 658706631#0 -397481041#5 226319967#0 1217655909 1217655905#0 1217655905#1 1217655906 116343001#0 908375867#0 294085186#0 524963566#0 524963566#4 525638420#0 293858828#0 908375883#0 908375889#0 126301385#0 8380822#0 140001530#0 44029116#0 44029116#4 483469231#0 579981379#0 519375847#0" >
        <stop busStop="-1457780061" duration="20" until="69.0"/> <!-- Riera de Cassoles - Via Augusta -->
        <stop busStop="-8220384275" duration="20" until="159.0"/> <!-- Gal·la Placídia -->
        <stop busStop="8220384274" duration="20" until="242.0"/> <!-- Via Augusta - Diagonal -->
        <stop busStop="8248379224" duration="20" until="670.0"/> <!-- Pg de Gràcia - Rosselló -->
        <stop busStop="5609793227" duration="20" until="752.0"/> <!-- Pg. de Gràcia - València -->
        <stop busStop="2528513653" duration="20" until="815.0"/> <!-- Pg. de Gràcia - Consell de Cent -->
        <stop busStop="5609793225" duration="20" until="925.0"/> <!-- Metro Pg. de Gràcia -->
        <stop busStop="8248379225" duration="20" until="1199.0"/> <!-- Ronda Sant Pere - Pg de Gràcia -->
    </route>
    <route id="pt_bus_24:0" color="208,46,38" edges="909658964 295268543#0 -893745919#2 -1235276476 -962829744 -1235264093#2 8380873#0 1392183135#0 140001530#0 440369835#0 304693491#0 116343003#0 -908375889#1 -908375883#3 -293858828#3 -525638420#2 -524963566#6 -524963566#3 -294085186#4 -908375867#2 -116343001#2 1217655904 1252144027 522164021#0 115676121#0 546303758 1217637622#0 401951398#1 401951398#4 1360091614 32015691#0 32015691#5 32015691#6 831182046 831182045#0 555542136#0 555542136#1 296827083#0 831255361#0 831255362" >
        <stop busStop="2989714853" duration="20" until="31.0"/> <!-- Pl.de Catalunya - Rambla Catalunya -->
        <stop busStop="-5603006498" duration="20" until="227.0"/> <!-- Pg de Gràcia - Gran Via -->
        <stop busStop="-5603009321" duration="20" until="319.0"/> <!-- Pg de Gràcia - Aragó -->
        <stop busStop="-8214234942" duration="20" until="393.0"/> <!-- Pg de Gràcia - Mallorca -->
        <stop busStop="-8214234941" duration="20" until="471.0"/> <!-- Pg de Gràcia - Diagonal -->
        <stop busStop="8220384289" duration="20" until="804.0"/> <!-- Gran de Gràcia - Jesús -->
        <stop busStop="8220384288" duration="20" until="891.0"/> <!-- Gran de Gràcia - Trav de Gràcia -->
        <stop busStop="7761529493" duration="20" until="957.0"/> <!-- Gran de Gràcia - Metro Fontana -->
    </route>
    <route id="pt_bus_24:1" color="208,46,38" edges="-296827092#1 -287670535 -541703429 -32015709#1 132535598 902160362#0 816764554#0 1395142049 1110658875 -540281990#1 -570560366#2 -542843797#0 -540501371#0 1395142048#0 288454797#0 288454797#2 288454797#4 288454797#6 902160361#0 902160361#1 658706631#0 -397481041#5 226319967#0 1217655909 1217655905#0 1217655905#1 1217655906 116343001#0 908375867#0 294085186#0 524963566#0 524963566#4 525638420#0 293858828#0 908375883#0 908375889#0 126301385#0 8380822#0 295268540#0 8380812#0 909658964" >
        <stop busStop="-1457780061" duration="20" until="102.0"/> <!-- Riera de Cassoles - Via Augusta -->
        <stop busStop="-8220384275" duration="20" until="209.0"/> <!-- Gal·la Placídia -->
        <stop busStop="8220384274" duration="20" until="287.0"/> <!-- Via Augusta - Diagonal -->
        <stop busStop="8248379224" duration="20" until="868.0"/> <!-- Pg de Gràcia - Rosselló -->
        <stop busStop="5609793227" duration="20" until="955.0"/> <!-- Pg. de Gràcia - València -->
        <stop busStop="5609793226" duration="20" until="1029.0"/> <!-- Pg. de Gràcia - Consell de Cent -->
        <stop busStop="5609793225" duration="20" until="1128.0"/> <!-- Metro Pg. de Gràcia -->
        <stop busStop="2989714853" duration="20" until="1272.0"/> <!-- Pl.de Catalunya - Rambla Catalunya -->
    </route>