<?xml version="1.0" encoding="UTF-8"?>

<!-- generated on 2025-08-24 08:42:07.355793 by $Id: ptlines2flows.py v1_3_1+0313-ccb31df3eb jakob.erdmann@dlr.de 2019-09-02 13:26:32 +0200 $ v1_24_0+0000-b72eb3fabc8
<configuration>
    <net-file value="C:\Users\marce\Sumo\2025-08-24-08-41-09\osm.net.xml.gz"/>
    <ptlines-file value="C:\Users\marce\Sumo\2025-08-24-08-41-09\osm_ptlines.xml"/>
    <ptstops-file value="C:\Users\marce\Sumo\2025-08-24-08-41-09\osm_stops.add.xml"/>
    <output-file value="C:\Users\marce\Sumo\2025-08-24-08-41-09\osm_pt.rou.xml"/>
    <stopinfos-file value="C:\Users\marce\Sumo\2025-08-24-08-41-09\stopinfos.xml"/>
    <routes-file value="C:\Users\marce\Sumo\2025-08-24-08-41-09\vehroutes.xml"/>
    <trips-file value="C:\Users\marce\Sumo\2025-08-24-08-41-09\trips.trips.xml"/>
    <min-stops value="0"/>
    <extend-to-fringe value="True"/>
    <random-begin value="True"/>
    <seed value="42"/>
    <ignore-errors value="True"/>
    <vtype-prefix value="pt_"/>
    <verbose value="True"/>
</configuration>
-->

<routes xmlns:xsi="http://www.w3.org/2001/XMLSchema-instance" xsi:noNamespaceSchemaLocation="http://sumo.dlr.de/xsd/routes_file.xsd">
    <vType id="pt_bus" vClass="bus" speedFactor="0.95"/>
    <vType id="pt_tram" vClass="tram" speedFactor="1.0"/>
    <vType id="pt_train" vClass="rail"/>
    <vType id="pt_subway" vClass="subway"/>
    <vType id="pt_light_rail" vClass="rail_urban"/>
    <vType id="pt_monorail" vClass="rail_urban"/>
    <vType id="pt_trolleybus" vClass="bus" speedFactor="0.95"/>
    <vType id="pt_minibus" vClass="bus" speedFactor="0.95"/>
    <vType id="pt_share_taxi" vClass="taxi" speedFactor="0.95"/>
    <vType id="pt_aerialway" vClass="cable_car" length="2.5" width="2" personCapacity="4"/>
    <vType id="pt_ferry" vClass="ship"/>
    <trip id="0_bus_L64:0" type="pt_bus" depart="0.0" departLane="best" from="170079056#0" to="1409636114#0">
        <stop busStop="1426089985" duration="30"/>  <!-- Av. Diagonal - Gran Via Carles III -->
        <stop busStop="5343770279" duration="30"/>  <!-- Diagonal - Entença -->
        <stop busStop="8394412764" duration="30"/>  <!-- Comte d'Urgell - Londres -->
    </trip>
    <trip id="1_bus_N61:0" type="pt_bus" depart="3.0" departLane="best" from="519375847#0" to="45521735">
        <stop busStop="5726021529" duration="30"/>  <!-- Rda. Sant Pere - Pl. de Catalunya -->
        <stop busStop="-8214234942" duration="30"/>  <!-- Pg de Gràcia - Mallorca -->
        <stop busStop="5247945809" duration="30"/>  <!-- Pl Gal·la Placídia -->
        <stop busStop="2989750378" duration="30"/>  <!-- Via Augusta - Pau Alcover -->
    </trip>
    <trip id="3_bus_X95:0" type="pt_bus" depart="11.0" departLane="best" from="545715326" to="20475367">
        <stop busStop="5760480288" duration="30"/>  <!-- Gran Via - Entença -->
        <stop busStop="5760480287" duration="30"/>  <!-- Gran Via - Viladomat -->
        <stop busStop="4893836322" duration="30"/>  <!-- Gran Via - Comte Borrell -->
        <stop busStop="8372242000" duration="30"/>  <!-- Gran Via - Comt Borrell -->
        <stop busStop="5760480286" duration="30"/>  <!-- Gran Via - Muntaner -->
        <stop busStop="1474608404" duration="30"/>  <!-- Pl Universitat -->
        <stop busStop="8634928230" duration="30"/>  <!-- Rda Universitat - Plaça Catalunya -->
    </trip>
    <trip id="5_bus_100:0" type="pt_bus" depart="15.0" departLane="best" from="126304603#0" to="542836620">
        <stop busStop="823781719" duration="30"/>  <!-- Plaça Catalunya -->
        <stop busStop="-12694287056" duration="30"/>  <!-- Casa Batlló - Museu Tàpies -->
        <stop busStop="12694287057" duration="30"/>  <!-- Eixample -->
        <stop busStop="12110026076" duration="30"/>  <!-- Estació de Sants -->
    </trip>
    <trip id="6_bus_101:0" type="pt_bus" depart="17.0" departLane="best" from="20045755#0" to="1370823684">
        <stop busStop="12701996671" duration="30"/>  <!-- Plaça de Catalunya -->
        <stop busStop="-12694287056" duration="30"/>  <!-- Casa Batlló - Museu Tàpies -->
        <stop busStop="-5375631705" duration="30"/>  <!-- Passeig de Gràcia - La Pedrera -->
    </trip>
    <trip id="7_bus_X30:0" type="pt_bus" depart="19.0" departLane="best" from="254329359" to="-396947540#1">
        <stop busStop="8033328937" duration="30"/>  <!-- Pau Romeva - Av. Diagonal -->
        <stop busStop="-5341631257" duration="30"/>  <!-- Diagonal - Doctor Fleming -->
        <stop busStop="-5341631256" duration="30"/>  <!-- Diagonal - Numància -->
        <stop busStop="-5341631255" duration="30"/>  <!-- Diagonal - Pl Reina Maria Cristina -->
        <stop busStop="-5572252923" duration="30"/>  <!-- Diagonal - Pl Pius XII -->
    </trip>
    <trip id="8_bus_X43:0" type="pt_bus" depart="27.0" departLane="best" from="862748475" to="-396947540#1">
        <stop busStop="8037346270" duration="30"/>  <!-- Flos i Calcat - Martí i Julià -->
        <stop busStop="8037498822" duration="30"/>  <!-- Numància - Flos i Calcat -->
        <stop busStop="-5341631256" duration="30"/>  <!-- Diagonal - Numància -->
        <stop busStop="-5341631255" duration="30"/>  <!-- Diagonal - Pl Reina Maria Cristina -->
        <stop busStop="-5572252923" duration="30"/>  <!-- Diagonal - Pl Pius XII -->
    </trip>
    <trip id="9_bus_X43:1" type="pt_bus" depart="28.0" departLane="best" from="396947540#0" to="862748475">
        <stop busStop="5253057127" duration="30"/>  <!-- Pl. Pius XII -->
        <stop busStop="5465541600" duration="30"/>  <!-- Pl Reina Maria Cristina -->
        <stop busStop="8037346270" duration="30"/>  <!-- Flos i Calcat - Martí i Julià -->
        <stop busStop="8037498822@11783610" duration="30"/>  <!-- Numància - Flos i Calcat -->
    </trip>
    <trip id="10_bus_X79:0" type="pt_bus" depart="30.0" departLane="best" from="254329359" to="-396947540#1">
        <stop busStop="8039245592" duration="30"/>  <!-- Pau Romeva - Av. Diagonal -->
        <stop busStop="-5341631257" duration="30"/>  <!-- Diagonal - Doctor Fleming -->
        <stop busStop="-5341631256" duration="30"/>  <!-- Diagonal - Numància -->
        <stop busStop="-5341631255" duration="30"/>  <!-- Diagonal - Pl Reina Maria Cristina -->
        <stop busStop="-5572252923" duration="30"/>  <!-- Diagonal - Pl Pius XII -->
    </trip>
    <trip id="11_bus_X95:1" type="pt_bus" depart="34.0" departLane="best" from="20475367" to="237923125#0">
        <stop busStop="8634928230" duration="30"/>  <!-- Rda Universitat - Plaça Catalunya -->
        <stop busStop="5609793223" duration="30"/>  <!-- Ronda Universitat - Pl. Universitat -->
        <stop busStop="5609793222" duration="30"/>  <!-- Sepúlveda - Muntaner -->
        <stop busStop="4040253780" duration="30"/>  <!-- Sepúlveda-Comte d'Urgell -->
        <stop busStop="8045155333" duration="30"/>  <!-- Sepúlveda - Viladomat -->
        <stop busStop="4040253782" duration="30"/>  <!-- Sepúlveda-Viladomat -->
        <stop busStop="8045155332" duration="30"/>  <!-- None -->
        <stop busStop="4040253781" duration="30"/>  <!-- Sepúlveda - Rocafort -->
        <stop busStop="2510578431" duration="30"/>  <!-- Sepúlveda - Av. Mistral -->
    </trip>
    <trip id="12_bus_X97:0" type="pt_bus" depart="34.0" departLane="best" from="238762327#2" to="-396947540#1">
        <stop busStop="8047001098" duration="30"/>  <!-- Gran Via Carles III - Av. Diagonal -->
        <stop busStop="-5341631256" duration="30"/>  <!-- Diagonal - Numància -->
        <stop busStop="-5341631255" duration="30"/>  <!-- Diagonal - Pl Reina Maria Cristina -->
        <stop busStop="-5256357715" duration="30"/>  <!-- Pl Pius XII -->
    </trip>
    <trip id="13_bus_X97:1" type="pt_bus" depart="35.0" departLane="best" from="396947540#0" to="-910513645">
        <stop busStop="5253057127" duration="30"/>  <!-- Pl. Pius XII -->
        <stop busStop="5465541600" duration="30"/>  <!-- Pl Reina Maria Cristina -->
        <stop busStop="-8047001098" duration="30"/>  <!-- Gran Via Carles III - Av. Diagonal -->
    </trip>
    <trip id="14_bus_M12:0" type="pt_bus" depart="38.0" departLane="best" from="237695645" to="178129414">
        <stop busStop="1856466663" duration="30"/>  <!-- Av. Diagonal - Pl. Reina Maria Cristina -->
        <stop busStop="5403752122" duration="30"/>  <!-- Av Diagonal - Pl Reina Maria Cristina -->
        <stop busStop="8048728590" duration="30"/>  <!-- Carles III - Maria Cristina -->
        <stop busStop="8048728589" duration="30"/>  <!-- Carles III - Mejía Lequerica -->
        <stop busStop="5264616256" duration="30"/>  <!-- Les Corts - Mejía Lequerica -->
        <stop busStop="8048728588" duration="30"/>  <!-- Estadi del Futbol Club Barcelona -->
        <stop busStop="5259830246" duration="30"/>  <!-- Riera Blanca - Les Corts -->
    </trip>
    <trip id="15_bus_175:0" type="pt_bus" depart="41.0" departLane="best" from="1225001919#0" to="-396947540#1">
        <stop busStop="687897179" duration="30"/>  <!-- Riera Blanca - Onze de Setembre -->
        <stop busStop="5259829879" duration="30"/>  <!-- Av Madrid - Arizala -->
        <stop busStop="2509846199" duration="30"/>  <!-- Gran Via Carles III - Av Madrid -->
        <stop busStop="8084922537" duration="30"/>  <!-- Carles III - Les Corts -->
        <stop busStop="1377816289" duration="30"/>  <!-- Carles III - Mejía Lequerica -->
        <stop busStop="-5341631255" duration="30"/>  <!-- Diagonal - Pl Reina Maria Cristina -->
        <stop busStop="-5572252923" duration="30"/>  <!-- Diagonal - Pl Pius XII -->
    </trip>
    <trip id="16_bus_175:1" type="pt_bus" depart="42.0" departLane="best" from="170079056#0" to="1225001919#0">
        <stop busStop="1478113760" duration="30"/>  <!-- Diagonal - Av Joan XXIII -->
        <stop busStop="8048728590" duration="30"/>  <!-- Carles III - Maria Cristina -->
        <stop busStop="8048728589" duration="30"/>  <!-- Carles III - Mejía Lequerica -->
        <stop busStop="5264616256" duration="30"/>  <!-- Les Corts - Mejía Lequerica -->
        <stop busStop="8048728588" duration="30"/>  <!-- Estadi del Futbol Club Barcelona -->
        <stop busStop="687897179" duration="30"/>  <!-- Riera Blanca - Onze de Setembre -->
    </trip>
    <trip id="17_bus_141:0" type="pt_bus" depart="42.0" departLane="best" from="450145189" to="868707435#0">
        <stop busStop="12625340222" duration="30"/>  <!-- Av. Sarrià - Buenos Aires -->
        <stop busStop="8097436675" duration="30"/>  <!-- Villarroel - Buenos Aires -->
        <stop busStop="8097436674" duration="30"/>  <!-- Villarroel - Hospital Clínic -->
        <stop busStop="2510905955" duration="30"/>  <!-- Villarroel - Mercat del Ninot -->
        <stop busStop="8097436672" duration="30"/>  <!-- Villarroel - Aragó -->
        <stop busStop="8097436671" duration="30"/>  <!-- Villarroel - Gran Via -->
        <stop busStop="8097436670" duration="30"/>  <!-- Villarroel - Sepúlveda -->
        <stop busStop="12351408134" duration="30"/>  <!-- Ronda Sant Antoni - Compte d'Urgell -->
        <stop busStop="8097353538" duration="30"/>  <!-- Calàbria - Manso -->
    </trip>
    <trip id="18_bus_141:1" type="pt_bus" depart="43.0" departLane="best" from="868707435#0" to="450145189">
        <stop busStop="8097353538" duration="30"/>  <!-- Calàbria - Manso -->
        <stop busStop="8097436669" duration="30"/>  <!-- Calàbria - Floridablanca -->
        <stop busStop="8097436668" duration="30"/>  <!-- Calàbria - Gran Via -->
        <stop busStop="2412575676" duration="30"/>  <!-- Calàbria- Aragó -->
        <stop busStop="8097436667" duration="30"/>  <!-- Calàbria - Aragó -->
        <stop busStop="8097436666" duration="30"/>  <!-- Calàbria - Provença -->
        <stop busStop="2508645427" duration="30"/>  <!-- Calàbria- Provença -->
        <stop busStop="8097436664" duration="30"/>  <!-- París - Viladomat -->
        <stop busStop="12625340222" duration="30"/>  <!-- Av. Sarrià - Buenos Aires -->
    </trip>
    <trip id="19_bus_X84:0" type="pt_bus" depart="43.0" departLane="best" from="238762327#2" to="-396947540#1">
        <stop busStop="8047001098" duration="30"/>  <!-- Gran Via Carles III - Av. Diagonal -->
        <stop busStop="-5341631256" duration="30"/>  <!-- Diagonal - Numància -->
        <stop busStop="-5341631255" duration="30"/>  <!-- Diagonal - Pl Reina Maria Cristina -->
        <stop busStop="-5256357715" duration="30"/>  <!-- Pl Pius XII -->
    </trip>
    <trip id="20_bus_X84:1" type="pt_bus" depart="47.0" departLane="best" from="396947540#0" to="-910513645">
        <stop busStop="5253057127" duration="30"/>  <!-- Pl. Pius XII -->
        <stop busStop="5465541600" duration="30"/>  <!-- Pl Reina Maria Cristina -->
        <stop busStop="-8047001098" duration="30"/>  <!-- Gran Via Carles III - Av. Diagonal -->
    </trip>
    <trip id="21_bus_X79:1" type="pt_bus" depart="48.0" departLane="best" from="396947540#0" to="254329359">
        <stop busStop="5253057127" duration="30"/>  <!-- Pl. Pius XII -->
        <stop busStop="5465541600" duration="30"/>  <!-- Pl Reina Maria Cristina -->
        <stop busStop="5343770280" duration="30"/>  <!-- Diagonal - L'Illa Diagonal -->
        <stop busStop="5343770279" duration="30"/>  <!-- Diagonal - Entença -->
        <stop busStop="8039245592" duration="30"/>  <!-- Pau Romeva - Av. Diagonal -->
    </trip>
    <trip id="22_bus_X1:0" type="pt_bus" depart="51.0" departLane="best" from="238179151#0" to="1391893480">
        <stop busStop="9103861283" duration="30"/>  <!-- Aragó - Passeig de Sant Joan -->
        <stop busStop="9103861281" duration="30"/>  <!-- Aragó - Passeig de Gràcia -->
        <stop busStop="9103861280" duration="30"/>  <!-- Aragó - Muntaner -->
        <stop busStop="8264714837" duration="30"/>  <!-- Còrsega - Hospital Clínc -->
        <stop busStop="9103861288" duration="30"/>  <!-- Diagonal - Pl Francesc Macià -->
    </trip>
    <trip id="23_bus_Bus:_Barcelona_=_Guimerà:0" type="pt_bus" depart="52.0" departLane="best" from="352482186" to="-396947540#1">
        <stop busStop="539147490" duration="30"/>  <!-- Sants Estació d'Autobús -->
        <stop busStop="-12884682177" duration="30"/>  <!-- Av. Diagonal (Maria Cristina) -->
    </trip>
    <trip id="24_bus_808:0" type="pt_bus" depart="54.0" departLane="best" from="272639447#0" to="511211614#0">
        <stop busStop="12523087147" duration="30"/>  <!-- Gran Via Corts Catalanes - Roger de Flor -->
        <stop busStop="12013170557" duration="30"/>  <!-- Rda. St. Pere 21-23 -->
    </trip>
    <trip id="25_bus_e24:0" type="pt_bus" depart="55.0" departLane="best" from="170079056#0" to="34054311#3">
        <stop busStop="1426089985" duration="30"/>  <!-- Av. Diagonal - Gran Via Carles III -->
    </trip>
    <trip id="26_bus_X83:0" type="pt_bus" depart="58.0" departLane="best" from="238762327#2" to="-396947540#1">
        <stop busStop="8047001098" duration="30"/>  <!-- Gran Via Carles III - Av. Diagonal -->
        <stop busStop="-5341631256" duration="30"/>  <!-- Diagonal - Numància -->
        <stop busStop="-5341631255" duration="30"/>  <!-- Diagonal - Pl Reina Maria Cristina -->
        <stop busStop="-5256357715" duration="30"/>  <!-- Pl Pius XII -->
    </trip>
    <trip id="27_bus_X83:1" type="pt_bus" depart="58.0" departLane="best" from="396947540#0" to="-910513645">
        <stop busStop="5253057127" duration="30"/>  <!-- Pl. Pius XII -->
        <stop busStop="5465541600" duration="30"/>  <!-- Pl Reina Maria Cristina -->
        <stop busStop="-8047001098" duration="30"/>  <!-- Gran Via Carles III - Av. Diagonal -->
    </trip>
    <trip id="31_bus_LN_102_Olot_-_Amer_-_Barcelona:0" type="pt_bus" depart="66.0" departLane="best" from="238179151#0" to="-1245668409#1">
        <stop busStop="11158611551" duration="30"/>  <!-- Barcelona - c. Aragó -->
        <stop busStop="-11573383354" duration="30"/>  <!-- Barcelona - c. Tarragona -->
    </trip>
    <trip id="32_bus_LN_102_Barcelona_-_Amer_-_Olot:0" type="pt_bus" depart="71.0" departLane="best" from="-1245668409#1" to="237521115#0">
        <stop busStop="-11573383354@17179588" duration="30"/>  <!-- Barcelona - c. Tarragona -->
        <stop busStop="11581804355" duration="30"/>  <!-- Barcelona - av. Gran Via -->
    </trip>
    <trip id="33_bus_Bus:_Guimerà_=_Barcelona:0" type="pt_bus" depart="72.0" departLane="best" from="170079056#0" to="352482186">
        <stop busStop="1426089985" duration="30"/>  <!-- Av. Diagonal - Gran Via Carles III -->
        <stop busStop="539147490@1744556" duration="30"/>  <!-- Sants Estació d'Autobús -->
    </trip>
    <trip id="34_bus_L1561:0" type="pt_bus" depart="77.0" departLane="best" from="330913954#0" to="237923125#0">
        <stop busStop="12013170557" duration="30"/>  <!-- Rda. St. Pere 21-23 -->
    </trip>
    <trip id="35_bus_L1561:1" type="pt_bus" depart="79.0" departLane="best" from="330913954#0" to="237521115#0">
        <stop busStop="12013170557" duration="30"/>  <!-- Rda. St. Pere 21-23 -->
        <stop busStop="5274072650" duration="30"/>  <!-- Gran Via - Roger de Flor -->
    </trip>
    <trip id="36_bus_e22:0" type="pt_bus" depart="91.0" departLane="best" from="170079056#0" to="483469233#0">
        <stop busStop="1426089985" duration="30"/>  <!-- Av. Diagonal - Gran Via Carles III -->
        <stop busStop="5343770281" duration="30"/>  <!-- Diagonal - Gandesa -->
        <stop busStop="8097436676" duration="30"/>  <!-- Comte d'Urgell - Buenos Aires -->
        <stop busStop="8210119845" duration="30"/>  <!-- Muntaner - Roselló -->
        <stop busStop="12075128991" duration="30"/>  <!-- Gran Via - Balmes -->
    </trip>
    <trip id="37_bus_e22:1" type="pt_bus" depart="92.0" departLane="best" from="483469233#0" to="-396947540#1">
        <stop busStop="12075128991" duration="30"/>  <!-- Gran Via - Balmes -->
        <stop busStop="8264714837" duration="30"/>  <!-- Còrsega - Hospital Clínc -->
        <stop busStop="-12075420266" duration="30"/>  <!-- Av. Diagonal - Dr. Ferran -->
    </trip>
    <trip id="38_bus_N82:0" type="pt_bus" depart="93.0" departLane="best" from="295263589#0" to="237521115#0">
        <stop busStop="9788442646" duration="30"/>  <!-- Pg de Gràcia - Casp -->
        <stop busStop="3092785220" duration="30"/>  <!-- Plaça Tetuan - Gran Via -->
    </trip>
    <trip id="39_bus_N82:1" type="pt_bus" depart="94.0" departLane="best" from="272639447#0" to="511211614#0">
        <stop busStop="5760544026" duration="30"/>  <!-- Metro Tetuan -->
        <stop busStop="3706371090" duration="30"/>  <!-- Ronda Sant Pere - Plaça Urquinaona -->
    </trip>
    <trip id="40_bus_618:0" type="pt_bus" depart="94.0" departLane="best" from="330913954#0" to="237521115#0">
        <stop busStop="12013170557" duration="30"/>  <!-- Rda. St. Pere 21-23 -->
        <stop busStop="12286198838" duration="30"/>  <!-- Gran Via de les Corts Catalanes - Nàpols -->
    </trip>
    <trip id="41_bus_618:1" type="pt_bus" depart="98.0" departLane="best" from="330913952#0" to="549749258#0">
        <stop busStop="12013170557" duration="30"/>  <!-- Rda. St. Pere 21-23 -->
    </trip>
    <trip id="42_bus_805:0" type="pt_bus" depart="99.0" departLane="best" from="18522669#0" to="237521115#0">
        <stop busStop="10832069131" duration="30"/>  <!-- Gran Via de les Corts Catalanes - Pg. de Gràcia -->
        <stop busStop="3092785220" duration="30"/>  <!-- Plaça Tetuan - Gran Via -->
    </trip>
    <trip id="43_bus_804:0" type="pt_bus" depart="102.0" departLane="best" from="272639447#0" to="18522669#0">
        <stop busStop="12523087147" duration="30"/>  <!-- Gran Via Corts Catalanes - Roger de Flor -->
        <stop busStop="10832069131" duration="30"/>  <!-- Gran Via de les Corts Catalanes - Pg. de Gràcia -->
    </trip>
    <trip id="49_bus_X3:0" type="pt_bus" depart="120.0" departLane="best" from="237649292#0" to="120328525#0">
        <stop busStop="12864216348" duration="30"/>  <!-- Ronda Sant Pau - Aldana -->
    </trip>
    <trip id="50_bus_X3:1" type="pt_bus" depart="122.0" departLane="best" from="237649291#0" to="237649292#0">
        <stop busStop="12864216348" duration="30"/>  <!-- Ronda Sant Pau - Aldana -->
    </trip>
    <trip id="51_bus_808:1" type="pt_bus" depart="125.0" departLane="best" from="511211614#0" to="237521115#0">
        <stop busStop="12013170557" duration="30"/>  <!-- Rda. St. Pere 21-23 -->
        <stop busStop="12286198838" duration="30"/>  <!-- Gran Via de les Corts Catalanes - Nàpols -->
    </trip>
    <trip id="52_bus_806:0" type="pt_bus" depart="126.0" departLane="best" from="18522669#0" to="237521115#0">
        <stop busStop="10832069131" duration="30"/>  <!-- Gran Via de les Corts Catalanes - Pg. de Gràcia -->
        <stop busStop="3092785220" duration="30"/>  <!-- Plaça Tetuan - Gran Via -->
    </trip>
    <trip id="53_bus_806:1" type="pt_bus" depart="127.0" departLane="best" from="272639447#0" to="18522669#0">
        <stop busStop="12523087147" duration="30"/>  <!-- Gran Via Corts Catalanes - Roger de Flor -->
        <stop busStop="10832069131" duration="30"/>  <!-- Gran Via de les Corts Catalanes - Pg. de Gràcia -->
    </trip>
    <trip id="54_bus_B20:0" type="pt_bus" depart="127.0" departLane="best" from="1408672893#0" to="511211614#0">
        <stop busStop="3706371090" duration="30"/>  <!-- Ronda Sant Pere - Plaça Urquinaona -->
    </trip>
    <trip id="55_bus_L62:0" type="pt_bus" depart="128.0" departLane="best" from="1210868746#0" to="1258709160">
        <stop busStop="2454435907" duration="30"/>  <!-- Trav. de les Corts - Riera Blanca -->
        <stop busStop="5264616329" duration="30"/>  <!-- Les Corts - Aurora Bertrana -->
    </trip>
    <trip id="56_bus_V7:0" type="pt_bus" depart="128.0" departLane="best" from="853255412#6" to="238862120#8">
        <stop busStop="7959328712" duration="30"/>  <!-- Diputació - Tarragona -->
        <stop busStop="2189785050" duration="30"/>  <!-- Metro Tarragona -->
        <stop busStop="1479334948" duration="30"/>  <!-- Av Roma - Tarragona -->
        <stop busStop="8194688622" duration="30"/>  <!-- Nicaragua - Josep Tarradellas -->
        <stop busStop="8194688621" duration="30"/>  <!-- Nicaragua - Parc Les Corts -->
        <stop busStop="-8194688620" duration="30"/>  <!-- Constança -->
        <stop busStop="-8194688619" duration="30"/>  <!-- Av Sarrià -->
        <stop busStop="8194688618" duration="30"/>  <!-- Av Sarrià - Prat de la Riba -->
        <stop busStop="8194688617" duration="30"/>  <!-- Pg. Sant Joan Bosco -->
        <stop busStop="-8194685216" duration="30"/>  <!-- Els Vergós -->
        <stop busStop="2989750378" duration="30"/>  <!-- Via Augusta - Pau Alcover -->
        <stop busStop="8194685215" duration="30"/>  <!-- Pg Bonanova -->
        <stop busStop="8194685214" duration="30"/>  <!-- CAP Sarrià -->
    </trip>
    <trip id="57_bus_V7:1" type="pt_bus" depart="131.0" departLane="best" from="871757026#0" to="853255412#6">
        <stop busStop="818710823" duration="30"/>  <!-- Via Augusta - Margenat -->
        <stop busStop="8194685213" duration="30"/>  <!-- Pg. Bonanova -->
        <stop busStop="2989750379" duration="30"/>  <!-- Via Augusta - Els Vergós -->
        <stop busStop="8194685212" duration="30"/>  <!-- Els Vergós -->
        <stop busStop="-8194685211" duration="30"/>  <!-- Pg Sant Joan Bosco -->
        <stop busStop="8194685210" duration="30"/>  <!-- Pg Sant Joan Bosco - Prat de la Riba -->
        <stop busStop="8194685209" duration="30"/>  <!-- Numància - Diagonal -->
        <stop busStop="5260292361" duration="30"/>  <!-- Numància - Parc Les Corts -->
        <stop busStop="8194685208" duration="30"/>  <!-- Numància - Berlín -->
        <stop busStop="2198032016" duration="30"/>  <!-- Numància - Av. Roma -->
        <stop busStop="7757144475" duration="30"/>  <!-- Numància - Av Roma -->
        <stop busStop="7959265886" duration="30"/>  <!-- València - Tarragona -->
        <stop busStop="7959328712" duration="30"/>  <!-- Diputació - Tarragona -->
    </trip>
    <trip id="58_bus_L1050a:0" type="pt_bus" depart="131.0" departLane="best" from="34054320#0" to="-543400542#2">
        <stop busStop="-364731358" duration="30"/>  <!-- Av. Diagonal - Dr. Ferran -->
        <stop busStop="-12884682177" duration="30"/>  <!-- Av. Diagonal (Maria Cristina) -->
    </trip>
    <trip id="59_bus_7:0" type="pt_bus" depart="132.0" departLane="best" from="170079056#0" to="237521115#0">
        <stop busStop="1478113760" duration="30"/>  <!-- Diagonal - Av Joan XXIII -->
        <stop busStop="8220177025" duration="30"/>  <!-- Diagonal - Gran Via Carles III -->
        <stop busStop="5343770281" duration="30"/>  <!-- Diagonal - Gandesa -->
        <stop busStop="5343770280" duration="30"/>  <!-- Diagonal - L'Illa Diagonal -->
        <stop busStop="5343770279" duration="30"/>  <!-- Diagonal - Entença -->
        <stop busStop="8199176440" duration="30"/>  <!-- Diagonal - Av de Sarrià -->
        <stop busStop="-5260292357" duration="30"/>  <!-- Diagonal - Francesc Macià -->
        <stop busStop="5260292356" duration="30"/>  <!-- Diagonal - Muntaner -->
        <stop busStop="8214234928" duration="30"/>  <!-- Balmes - Roselló -->
        <stop busStop="8214234927" duration="30"/>  <!-- Balmes - València -->
        <stop busStop="8214234926" duration="30"/>  <!-- Balmes - Aragó -->
        <stop busStop="5274072653" duration="30"/>  <!-- Gran Via - Balmes -->
        <stop busStop="5274072652" duration="30"/>  <!-- Gran Via - Pau Claris -->
        <stop busStop="5711282952" duration="30"/>  <!-- Gran Via - Llúria -->
        <stop busStop="5274072651" duration="30"/>  <!-- Metro Tetuan -->
        <stop busStop="5274072650" duration="30"/>  <!-- Gran Via - Roger de Flor -->
    </trip>
    <trip id="60_bus_27:0" type="pt_bus" depart="132.0" departLane="best" from="1307265857" to="296827092#0">
        <stop busStop="12105890505" duration="30"/>  <!-- Estació de Sants - Pl Joan Peiró -->
        <stop busStop="12106325521" duration="30"/>  <!-- Pg Sant Antoni - Parc de l'Espanya Industrial -->
        <stop busStop="1479334948" duration="30"/>  <!-- Av Roma - Tarragona -->
        <stop busStop="5247914070" duration="30"/>  <!-- Josep Tarradellas - Rosselló -->
        <stop busStop="5247914552" duration="30"/>  <!-- Josep Tarradellas - París -->
        <stop busStop="5247922096" duration="30"/>  <!-- Josep Tarradellas - Viladomat -->
        <stop busStop="5247922095" duration="30"/>  <!-- Buenos Aires - Comte d'Urgell -->
        <stop busStop="5247930117" duration="30"/>  <!-- Travessera de Gràcia - Muntaner -->
        <stop busStop="8171323754" duration="30"/>  <!-- Trav de Gràcia - Muntaner -->
        <stop busStop="8171323753" duration="30"/>  <!-- Trav de Gràcia - Balmes -->
        <stop busStop="5247945809" duration="30"/>  <!-- Pl Gal·la Placídia -->
        <stop busStop="7684461611" duration="30"/>  <!-- Riera de Cassoles - Rambla de Prat -->
    </trip>
    <trip id="61_bus_39:0" type="pt_bus" depart="133.0" departLane="best" from="1205958254" to="226319971">
        <stop busStop="6123166499" duration="30"/>  <!-- Pl Urquinaona -->
        <stop busStop="6123166500" duration="30"/>  <!-- PL Urquinaona - Pau Claris -->
        <stop busStop="5609793288" duration="30"/>  <!-- Llúria - Urquinaona -->
        <stop busStop="6321098316" duration="30"/>  <!-- Llúria - Gran Via -->
        <stop busStop="6321098315" duration="30"/>  <!-- Llúria - Aragó -->
        <stop busStop="5603006485" duration="30"/>  <!-- Llúria - Mallorca -->
        <stop busStop="5603006508" duration="30"/>  <!-- Rosselló - Bruc -->
        <stop busStop="5261112621" duration="30"/>  <!-- Rosselló - Bailèn -->
        <stop busStop="5603006483" duration="30"/>  <!-- Pg de Sant Joan - Còrsega -->
    </trip>
    <trip id="62_bus_115:0" type="pt_bus" depart="134.0" departLane="best" from="831157580#0" to="30761362">
        <stop busStop="7760665318" duration="30"/>  <!-- Pl. Sants -->
        <stop busStop="12106325521" duration="30"/>  <!-- Pg Sant Antoni - Parc de l'Espanya Industrial -->
        <stop busStop="1479334948" duration="30"/>  <!-- Av Roma - Tarragona -->
        <stop busStop="2508645431" duration="30"/>  <!-- Enric Bargés - Numància -->
    </trip>
    <trip id="63_bus_157:0" type="pt_bus" depart="136.0" departLane="best" from="899931799#1" to="1258709160">
        <stop busStop="8361317682" duration="30"/>  <!-- Riera Blanca - Trav de Les Corts -->
        <stop busStop="5264616329" duration="30"/>  <!-- Les Corts - Aurora Bertrana -->
    </trip>
    <trip id="64_bus_H8:0" type="pt_bus" depart="137.0" departLane="best" from="1409296676#0" to="1258709160">
        <stop busStop="13061353133" duration="30"/>  <!-- Pg de Sant Joan - Còrsega -->
        <stop busStop="5264363332" duration="30"/>  <!-- Còrsega - Bailèn -->
        <stop busStop="5264394428" duration="30"/>  <!-- Còrsega - Llúria -->
        <stop busStop="-5260601899" duration="30"/>  <!-- Diagonal - Passeig de Gràcia -->
        <stop busStop="-8191099732" duration="30"/>  <!-- Diagonal - Balmes -->
        <stop busStop="-8191099731" duration="30"/>  <!-- Diagonal - Muntaner -->
        <stop busStop="5264394013" duration="30"/>  <!-- Diagonal - Francesc Macià -->
        <stop busStop="8173979185" duration="30"/>  <!-- Josep Tarradellas - Francesc Macià -->
        <stop busStop="5264616257" duration="30"/>  <!-- Les Corts - Pl Dr Ignasi Barraquer -->
        <stop busStop="5264616332" duration="30"/>  <!-- Les Corts - Numància -->
        <stop busStop="8191099730" duration="30"/>  <!-- Les Corts - Vallespir -->
        <stop busStop="8191099729" duration="30"/>  <!-- Mercat de Les Corts -->
        <stop busStop="5264616256" duration="30"/>  <!-- Les Corts - Mejía Lequerica -->
        <stop busStop="8191099728" duration="30"/>  <!-- Les Corts - Arizala -->
        <stop busStop="5264616329" duration="30"/>  <!-- Les Corts - Aurora Bertrana -->
    </trip>